// Generated for: spectre
// Generated on: Dec 13 16:56:27 2021
// Design library name: energy28
// Design cell name: char_tb
// Design view name: schematic
simulator lang=spectre
global 0
parameters LN=30n LP=30n WN=10u WP=4u
include "/home/VLSI_ANALOG/UMCLib/pdk/UMC/28/_G-01-LOGIC_MIXED_MODE28N-HPC/Designkits/Cadence_IC6/G-9FD-LOGIC_MIXED_MODE28N-HPC_UM028FDKHCC0000OA-FDK-Ver.A14_PB/UM028FDKHCC0000OA_A14_DESIGNKIT/UM028FDKHCC0000OA_A14_PB/umc28hpc/../Models/Spectre/l28hpc_mm_v1201.lib.scs" section=tt
include "/home/VLSI_ANALOG/UMCLib/pdk/UMC/28/_G-01-LOGIC_MIXED_MODE28N-HPC/Designkits/Cadence_IC6/G-9FD-LOGIC_MIXED_MODE28N-HPC_UM028FDKHCC0000OA-FDK-Ver.A14_PB/UM028FDKHCC0000OA_A14_DESIGNKIT/UM028FDKHCC0000OA_A14_PB/umc28hpc/../Models/Spectre/l28hpc_rf_v017.lib.scs" section=tt

// Library name: lowpower28
// Cell name: INVX1
// View name: schematic
subckt INVX1 A GND VDD Y
    NM0 (Y A GND GND) n_p9_hpculvt m=1 mf=1 w=WN l=LN nf=4 \
        ad=((int(((4)-1)/2)==int((4)/2))?((((WN)/(4))<4.95e-08)?((WN)/(4))*3e-08+(((((LN)>9e-08)?9.5e-08:(((LN)<40n)?9.5e-08:75n)))-3e-08)*5e-08:((((LN)>9e-08)?9.5e-08:(((LN)<40n)?9.5e-08:75n)))*((WN)/(4)))+((((WN)/(4))<4.95e-08)?((((((4)==1)?0:(((LN)>9e-08)?1.2e-07:(((LN)<40n)?1.2e-07:100n))))-2*3e-08)*5e-08)+2*((WN)/(4))*3e-08:((((4)==1)?0:(((LN)>9e-08)?1.2e-07:(((LN)<40n)?1.2e-07:100n))))*((WN)/(4)))*((4)-1)/2.0:((((WN)/(4))<4.95e-08)?((((((4)==1)?0:(((LN)>9e-08)?1.2e-07:(((LN)<40n)?1.2e-07:100n))))-2*3e-08)*5e-08)+2*((WN)/(4))*3e-08:((((4)==1)?0:(((LN)>9e-08)?1.2e-07:(((LN)<40n)?1.2e-07:100n))))*((WN)/(4)))*(4)/2.0) \
        as=((int(((4)-1)/2)==int((4)/2))?((((WN)/(4))<4.95e-08)?((WN)/(4))*3e-08+(((((LN)>9e-08)?9.5e-08:(((LN)<40n)?9.5e-08:75n)))-3e-08)*5e-08:((((LN)>9e-08)?9.5e-08:(((LN)<40n)?9.5e-08:75n)))*((WN)/(4)))+((((WN)/(4))<4.95e-08)?((((((4)==1)?0:(((LN)>9e-08)?1.2e-07:(((LN)<40n)?1.2e-07:100n))))-2*3e-08)*5e-08)+2*((WN)/(4))*3e-08:((((4)==1)?0:(((LN)>9e-08)?1.2e-07:(((LN)<40n)?1.2e-07:100n))))*((WN)/(4)))*((4)-1)/2.0:((((WN)/(4))<4.95e-08)?((WN)/(4))*3e-08+(((((LN)>9e-08)?9.5e-08:(((LN)<40n)?9.5e-08:75n)))-3e-08)*5e-08:((((LN)>9e-08)?9.5e-08:(((LN)<40n)?9.5e-08:75n)))*((WN)/(4)))+((((WN)/(4))<4.95e-08)?((WN)/(4))*3e-08+(((((LN)>9e-08)?9.5e-08:(((LN)<40n)?9.5e-08:75n)))-3e-08)*5e-08:((((LN)>9e-08)?9.5e-08:(((LN)<40n)?9.5e-08:75n)))*((WN)/(4)))+((((WN)/(4))<4.95e-08)?((((((4)==1)?0:(((LN)>9e-08)?1.2e-07:(((LN)<40n)?1.2e-07:100n))))-2*3e-08)*5e-08)+2*((WN)/(4))*3e-08:((((4)==1)?0:(((LN)>9e-08)?1.2e-07:(((LN)<40n)?1.2e-07:100n))))*((WN)/(4)))*((4)-2)/2.0) \
        pd=((int(((4)-1)/2)==int((4)/2))?((((WN)/(4))<4.95e-08)?2*((((LN)>9e-08)?9.5e-08:(((LN)<40n)?9.5e-08:75n)))+1e-07:2*(((((LN)>9e-08)?9.5e-08:(((LN)<40n)?9.5e-08:75n)))+((WN)/(4))))+((((WN)/(4))<4.95e-08)?2*((((4)==1)?0:(((LN)>9e-08)?1.2e-07:(((LN)<40n)?1.2e-07:100n))))+1e-07:2*(((((4)==1)?0:(((LN)>9e-08)?1.2e-07:(((LN)<40n)?1.2e-07:100n))))+((WN)/(4))))*((4)-1)/2.0:((((WN)/(4))<4.95e-08)?2*((((4)==1)?0:(((LN)>9e-08)?1.2e-07:(((LN)<40n)?1.2e-07:100n))))+1e-07:2*(((((4)==1)?0:(((LN)>9e-08)?1.2e-07:(((LN)<40n)?1.2e-07:100n))))+((WN)/(4))))*(4)/2.0) \
        ps=((int(((4)-1)/2)==int((4)/2))?((((WN)/(4))<4.95e-08)?2*((((LN)>9e-08)?9.5e-08:(((LN)<40n)?9.5e-08:75n)))+1e-07:2*(((((LN)>9e-08)?9.5e-08:(((LN)<40n)?9.5e-08:75n)))+((WN)/(4))))+((((WN)/(4))<4.95e-08)?2*((((4)==1)?0:(((LN)>9e-08)?1.2e-07:(((LN)<40n)?1.2e-07:100n))))+1e-07:2*(((((4)==1)?0:(((LN)>9e-08)?1.2e-07:(((LN)<40n)?1.2e-07:100n))))+((WN)/(4))))*((4)-1)/2.0:((((WN)/(4))<4.95e-08)?2*((((LN)>9e-08)?9.5e-08:(((LN)<40n)?9.5e-08:75n)))+1e-07:2*(((((LN)>9e-08)?9.5e-08:(((LN)<40n)?9.5e-08:75n)))+((WN)/(4))))+((((WN)/(4))<4.95e-08)?2*((((LN)>9e-08)?9.5e-08:(((LN)<40n)?9.5e-08:75n)))+1e-07:2*(((((LN)>9e-08)?9.5e-08:(((LN)<40n)?9.5e-08:75n)))+((WN)/(4))))+((((WN)/(4))<4.95e-08)?2*((((4)==1)?0:(((LN)>9e-08)?1.2e-07:(((LN)<40n)?1.2e-07:100n))))+1e-07:2*(((((4)==1)?0:(((LN)>9e-08)?1.2e-07:(((LN)<40n)?1.2e-07:100n))))+((WN)/(4))))*((4)-2)/2.0) \
        sa=(((LN)>9e-08)?9.5e-08:(((LN)<40n)?9.5e-08:75n)) \
        sb=(((LN)>9e-08)?9.5e-08:(((LN)<40n)?9.5e-08:75n)) \
        sd=(((4)==1)?0:(((LN)>9e-08)?1.2e-07:(((LN)<40n)?1.2e-07:100n))) \
        sca=((1e-06*1e-06)/((WN)/(4)))*(1/(65n)-1/((65n)+((WN)/(4)))) \
        scb=(1/(((WN)/(4))*1e-06))*(1e-06/10*(65n)*exp(-10*(65n)/1e-06)+((1e-06*1e-06)/100)*exp(-10*(65n)/1e-06)-(1e-06/10)*((65n)+((WN)/(4)))*exp(-10*((65n)+((WN)/(4)))/1e-06)-(1e-06*1e-06)/100*exp(-10*((65n)+((WN)/(4)))/1e-06)) \
        scc=(1/(((WN)/(4))*1e-06))*(1e-06/20*(65n)*exp(-20*(65n)/1e-06)+((1e-06*1e-06)/400)*exp(-20*(65n)/1e-06)-(1e-06/20)*((65n)+((WN)/(4)))*exp(-20*((65n)+((WN)/(4)))/1e-06)-(1e-06*1e-06)/400*exp(-20*((65n)+((WN)/(4)))/1e-06)) \
        mis_flag=1 cctg_flag=1 rdscon_flag=1 rgate_flag=1
    PM2 (Y A VDD VDD) p_p9_hpculvt m=1 mf=1 w=WP l=LP nf=4 \
        ad=((int(((4)-1)/2)==int((4)/2))?((((WP)/(4))<4.95e-08)?((WP)/(4))*3e-08+(((((LP)>9e-08)?9.5e-08:(((LP)<40n)?7.5e-08:75n)))-3e-08)*5e-08:((((LP)>9e-08)?9.5e-08:(((LP)<40n)?7.5e-08:75n)))*((WP)/(4)))+((((WP)/(4))<4.95e-08)?((((((4)==1)?0:(((LP)>9e-08)?1.2e-07:(((LP)<40n)?1e-07:100n))))-2*3e-08)*5e-08)+2*((WP)/(4))*3e-08:((((4)==1)?0:(((LP)>9e-08)?1.2e-07:(((LP)<40n)?1e-07:100n))))*((WP)/(4)))*((4)-1)/2.0:((((WP)/(4))<4.95e-08)?((((((4)==1)?0:(((LP)>9e-08)?1.2e-07:(((LP)<40n)?1e-07:100n))))-2*3e-08)*5e-08)+2*((WP)/(4))*3e-08:((((4)==1)?0:(((LP)>9e-08)?1.2e-07:(((LP)<40n)?1e-07:100n))))*((WP)/(4)))*(4)/2.0) \
        as=((int(((4)-1)/2)==int((4)/2))?((((WP)/(4))<4.95e-08)?((WP)/(4))*3e-08+(((((LP)>9e-08)?9.5e-08:(((LP)<40n)?7.5e-08:75n)))-3e-08)*5e-08:((((LP)>9e-08)?9.5e-08:(((LP)<40n)?7.5e-08:75n)))*((WP)/(4)))+((((WP)/(4))<4.95e-08)?((((((4)==1)?0:(((LP)>9e-08)?1.2e-07:(((LP)<40n)?1e-07:100n))))-2*3e-08)*5e-08)+2*((WP)/(4))*3e-08:((((4)==1)?0:(((LP)>9e-08)?1.2e-07:(((LP)<40n)?1e-07:100n))))*((WP)/(4)))*((4)-1)/2.0:((((WP)/(4))<4.95e-08)?((WP)/(4))*3e-08+(((((LP)>9e-08)?9.5e-08:(((LP)<40n)?7.5e-08:75n)))-3e-08)*5e-08:((((LP)>9e-08)?9.5e-08:(((LP)<40n)?7.5e-08:75n)))*((WP)/(4)))+((((WP)/(4))<4.95e-08)?((WP)/(4))*3e-08+(((((LP)>9e-08)?9.5e-08:(((LP)<40n)?7.5e-08:75n)))-3e-08)*5e-08:((((LP)>9e-08)?9.5e-08:(((LP)<40n)?7.5e-08:75n)))*((WP)/(4)))+((((WP)/(4))<4.95e-08)?((((((4)==1)?0:(((LP)>9e-08)?1.2e-07:(((LP)<40n)?1e-07:100n))))-2*3e-08)*5e-08)+2*((WP)/(4))*3e-08:((((4)==1)?0:(((LP)>9e-08)?1.2e-07:(((LP)<40n)?1e-07:100n))))*((WP)/(4)))*((4)-2)/2.0) \
        pd=((int(((4)-1)/2)==int((4)/2))?((((WP)/(4))<4.95e-08)?2*((((LP)>9e-08)?9.5e-08:(((LP)<40n)?7.5e-08:75n)))+1e-07:2*(((((LP)>9e-08)?9.5e-08:(((LP)<40n)?7.5e-08:75n)))+((WP)/(4))))+((((WP)/(4))<4.95e-08)?2*((((4)==1)?0:(((LP)>9e-08)?1.2e-07:(((LP)<40n)?1e-07:100n))))+1e-07:2*(((((4)==1)?0:(((LP)>9e-08)?1.2e-07:(((LP)<40n)?1e-07:100n))))+((WP)/(4))))*((4)-1)/2.0:((((WP)/(4))<4.95e-08)?2*((((4)==1)?0:(((LP)>9e-08)?1.2e-07:(((LP)<40n)?1e-07:100n))))+1e-07:2*(((((4)==1)?0:(((LP)>9e-08)?1.2e-07:(((LP)<40n)?1e-07:100n))))+((WP)/(4))))*(4)/2.0) \
        ps=((int(((4)-1)/2)==int((4)/2))?((((WP)/(4))<4.95e-08)?2*((((LP)>9e-08)?9.5e-08:(((LP)<40n)?7.5e-08:75n)))+1e-07:2*(((((LP)>9e-08)?9.5e-08:(((LP)<40n)?7.5e-08:75n)))+((WP)/(4))))+((((WP)/(4))<4.95e-08)?2*((((4)==1)?0:(((LP)>9e-08)?1.2e-07:(((LP)<40n)?1e-07:100n))))+1e-07:2*(((((4)==1)?0:(((LP)>9e-08)?1.2e-07:(((LP)<40n)?1e-07:100n))))+((WP)/(4))))*((4)-1)/2.0:((((WP)/(4))<4.95e-08)?2*((((LP)>9e-08)?9.5e-08:(((LP)<40n)?7.5e-08:75n)))+1e-07:2*(((((LP)>9e-08)?9.5e-08:(((LP)<40n)?7.5e-08:75n)))+((WP)/(4))))+((((WP)/(4))<4.95e-08)?2*((((LP)>9e-08)?9.5e-08:(((LP)<40n)?7.5e-08:75n)))+1e-07:2*(((((LP)>9e-08)?9.5e-08:(((LP)<40n)?7.5e-08:75n)))+((WP)/(4))))+((((WP)/(4))<4.95e-08)?2*((((4)==1)?0:(((LP)>9e-08)?1.2e-07:(((LP)<40n)?1e-07:100n))))+1e-07:2*(((((4)==1)?0:(((LP)>9e-08)?1.2e-07:(((LP)<40n)?1e-07:100n))))+((WP)/(4))))*((4)-2)/2.0) \
        sa=(((LP)>9e-08)?9.5e-08:(((LP)<40n)?7.5e-08:75n)) \
        sb=(((LP)>9e-08)?9.5e-08:(((LP)<40n)?7.5e-08:75n)) \
        sd=(((4)==1)?0:(((LP)>9e-08)?1.2e-07:(((LP)<40n)?1e-07:100n))) \
        sca=((1e-06*1e-06)/((WP)/(4)))*(1/(65n)-1/((65n)+((WP)/(4)))) \
        scb=(1/(((WP)/(4))*1e-06))*(1e-06/10*(65n)*exp(-10*(65n)/1e-06)+((1e-06*1e-06)/100)*exp(-10*(65n)/1e-06)-(1e-06/10)*((65n)+((WP)/(4)))*exp(-10*((65n)+((WP)/(4)))/1e-06)-(1e-06*1e-06)/100*exp(-10*((65n)+((WP)/(4)))/1e-06)) \
        scc=(1/(((WP)/(4))*1e-06))*(1e-06/20*(65n)*exp(-20*(65n)/1e-06)+((1e-06*1e-06)/400)*exp(-20*(65n)/1e-06)-(1e-06/20)*((65n)+((WP)/(4)))*exp(-20*((65n)+((WP)/(4)))/1e-06)-(1e-06*1e-06)/400*exp(-20*((65n)+((WP)/(4)))/1e-06)) \
        mis_flag=1 cctg_flag=1 rdscon_flag=1 rgate_flag=1
ends INVX1
// End of subcircuit definition.

// Library name: energy28
// Cell name: char_tb
// View name: schematic
V0 (net5 0) vsource dc=300m type=dc
V2 (net06 0) vsource dc=0 type=pulse val0=0 val1=300m period=100n delay=0 \
        rise=100p fall=100p
C1 (OUT 0) capacitor c=10f
I23 (net06 0 net5 OUT) INVX1
simulatorOptions options psfversion="1.4.0" reltol=1e-3 vabstol=1e-6 \
    iabstol=1e-12 temp=27 tnom=27 scalem=1.0 scale=1.0 gmin=1e-12 rforce=1 \
    maxnotes=5 maxwarns=5 digits=5 cols=80 pivrel=1e-3 \
    sensfile="../psf/sens.output" checklimitdest=psf 
tran tran stop=500n write="spectre.ic" writefinal="spectre.fc" \
    annotate=status maxiters=5 
finalTimeOP info what=oppoint where=rawfile
dcOp dc write="spectre.dc" maxiters=150 maxsteps=10000 annotate=status
dcOpInfo info what=oppoint where=rawfile
dc dc dev=V2 param=dc start=0 stop=300m oppoint=rawfile maxiters=150 \
    maxsteps=10000 annotate=status
modelParameter info what=models where=rawfile
element info what=inst where=rawfile
outputParameter info what=output where=rawfile
designParamVals info what=parameters where=rawfile
primitives info what=primitives where=rawfile
subckts info what=subckts where=rawfile
saveOptions options save=allpub pwr=all
