// Generated for: spectre
// Generated on: Dec 27 14:03:32 2021
// Design library name: subvt
// Design cell name: DUT
// Design view name: schematic
simulator lang=spectre
global 0
parameters LN=40n LP=40n vdd=300m WN=2u WP=3u
include "/home/VLSI_ANALOG/UMC40/FDK_LP/umc40lp/../Models/Spectre/l40lp_rf_v152_e.lib.scs" section=tt
include "/home/VLSI_ANALOG/UMC40/FDK_LP/umc40lp/../Models/Spectre/l40lp_mm_v1101_e.lib.scs" section=tt

// Library name: subvt
// Cell name: DFFRM1
// View name: schematic
subckt DFFRM1 CK D GND Q QN RN VDD
    NM4 (n20 CKbb n25 GND) n_11_lplvt m=1 mf=1 w=WN l=LN nf=1 \
        ad=((int(((1)-1)/2)==int((1)/2))?((((WN)/(1))<7.95e-08)?((WN)/(1))*3e-08+((((((WN)/(1))<7.95e-08)?(((6e-08+3e-08+(((2*(4e-08-0.0)+(LN))<7e-08)?5.5e-08:4e-08))>1.5e-07)?(6e-08+3e-08+(((2*(4e-08-0.0)+(LN))<7e-08)?5.5e-08:4e-08)):1.5e-07):(6e-08+3e-08+(((2*(4e-08-0.0)+(LN))<7e-08)?5.5e-08:4e-08))))-3e-08)*8e-08:(((((WN)/(1))<7.95e-08)?(((6e-08+3e-08+(((2*(4e-08-0.0)+(LN))<7e-08)?5.5e-08:4e-08))>1.5e-07)?(6e-08+3e-08+(((2*(4e-08-0.0)+(LN))<7e-08)?5.5e-08:4e-08)):1.5e-07):(6e-08+3e-08+(((2*(4e-08-0.0)+(LN))<7e-08)?5.5e-08:4e-08))))*((WN)/(1)))+((((WN)/(1))<7.95e-08)?2*((WN)/(1))*3e-08+(((((1)==1)?0:((((WN)/(1))<7.95e-08)?(7e-08+((max(1.4e-07,(6e-08+(2*(((2*(4e-08-0.0)+(LN))<7e-08)?5.5e-08:4e-08))))>1.8e-07)?max(1.4e-07,(6e-08+(2*(((2*(4e-08-0.0)+(LN))<7e-08)?5.5e-08:4e-08)))):1.8e-07)-7e-08):(7e-08+max(1.4e-07,(6e-08+(2*(((2*(4e-08-0.0)+(LN))<7e-08)?5.5e-08:4e-08))))-7e-08))))-2*3e-08)*8e-08:((((1)==1)?0:((((WN)/(1))<7.95e-08)?(7e-08+((max(1.4e-07,(6e-08+(2*(((2*(4e-08-0.0)+(LN))<7e-08)?5.5e-08:4e-08))))>1.8e-07)?max(1.4e-07,(6e-08+(2*(((2*(4e-08-0.0)+(LN))<7e-08)?5.5e-08:4e-08)))):1.8e-07)-7e-08):(7e-08+max(1.4e-07,(6e-08+(2*(((2*(4e-08-0.0)+(LN))<7e-08)?5.5e-08:4e-08))))-7e-08))))*((WN)/(1)))*((1)-1)/2.0:((((WN)/(1))<7.95e-08)?2*((WN)/(1))*3e-08+(((((1)==1)?0:((((WN)/(1))<7.95e-08)?(7e-08+((max(1.4e-07,(6e-08+(2*(((2*(4e-08-0.0)+(LN))<7e-08)?5.5e-08:4e-08))))>1.8e-07)?max(1.4e-07,(6e-08+(2*(((2*(4e-08-0.0)+(LN))<7e-08)?5.5e-08:4e-08)))):1.8e-07)-7e-08):(7e-08+max(1.4e-07,(6e-08+(2*(((2*(4e-08-0.0)+(LN))<7e-08)?5.5e-08:4e-08))))-7e-08))))-2*3e-08)*8e-08:((((1)==1)?0:((((WN)/(1))<7.95e-08)?(7e-08+((max(1.4e-07,(6e-08+(2*(((2*(4e-08-0.0)+(LN))<7e-08)?5.5e-08:4e-08))))>1.8e-07)?max(1.4e-07,(6e-08+(2*(((2*(4e-08-0.0)+(LN))<7e-08)?5.5e-08:4e-08)))):1.8e-07)-7e-08):(7e-08+max(1.4e-07,(6e-08+(2*(((2*(4e-08-0.0)+(LN))<7e-08)?5.5e-08:4e-08))))-7e-08))))*((WN)/(1)))*(1)/2.0) \
        as=((int(((1)-1)/2)==int((1)/2))?((((WN)/(1))<7.95e-08)?((WN)/(1))*3e-08+((((((WN)/(1))<7.95e-08)?(((6e-08+3e-08+(((2*(4e-08-0.0)+(LN))<7e-08)?5.5e-08:4e-08))>1.5e-07)?(6e-08+3e-08+(((2*(4e-08-0.0)+(LN))<7e-08)?5.5e-08:4e-08)):1.5e-07):(6e-08+3e-08+(((2*(4e-08-0.0)+(LN))<7e-08)?5.5e-08:4e-08))))-3e-08)*8e-08:(((((WN)/(1))<7.95e-08)?(((6e-08+3e-08+(((2*(4e-08-0.0)+(LN))<7e-08)?5.5e-08:4e-08))>1.5e-07)?(6e-08+3e-08+(((2*(4e-08-0.0)+(LN))<7e-08)?5.5e-08:4e-08)):1.5e-07):(6e-08+3e-08+(((2*(4e-08-0.0)+(LN))<7e-08)?5.5e-08:4e-08))))*((WN)/(1)))+((((WN)/(1))<7.95e-08)?2*((WN)/(1))*3e-08+(((((1)==1)?0:((((WN)/(1))<7.95e-08)?(7e-08+((max(1.4e-07,(6e-08+(2*(((2*(4e-08-0.0)+(LN))<7e-08)?5.5e-08:4e-08))))>1.8e-07)?max(1.4e-07,(6e-08+(2*(((2*(4e-08-0.0)+(LN))<7e-08)?5.5e-08:4e-08)))):1.8e-07)-7e-08):(7e-08+max(1.4e-07,(6e-08+(2*(((2*(4e-08-0.0)+(LN))<7e-08)?5.5e-08:4e-08))))-7e-08))))-2*3e-08)*8e-08:((((1)==1)?0:((((WN)/(1))<7.95e-08)?(7e-08+((max(1.4e-07,(6e-08+(2*(((2*(4e-08-0.0)+(LN))<7e-08)?5.5e-08:4e-08))))>1.8e-07)?max(1.4e-07,(6e-08+(2*(((2*(4e-08-0.0)+(LN))<7e-08)?5.5e-08:4e-08)))):1.8e-07)-7e-08):(7e-08+max(1.4e-07,(6e-08+(2*(((2*(4e-08-0.0)+(LN))<7e-08)?5.5e-08:4e-08))))-7e-08))))*((WN)/(1)))*((1)-1)/2.0:((((WN)/(1))<7.95e-08)?((WN)/(1))*3e-08+((((((WN)/(1))<7.95e-08)?(((6e-08+3e-08+(((2*(4e-08-0.0)+(LN))<7e-08)?5.5e-08:4e-08))>1.5e-07)?(6e-08+3e-08+(((2*(4e-08-0.0)+(LN))<7e-08)?5.5e-08:4e-08)):1.5e-07):(6e-08+3e-08+(((2*(4e-08-0.0)+(LN))<7e-08)?5.5e-08:4e-08))))-3e-08)*8e-08:(((((WN)/(1))<7.95e-08)?(((6e-08+3e-08+(((2*(4e-08-0.0)+(LN))<7e-08)?5.5e-08:4e-08))>1.5e-07)?(6e-08+3e-08+(((2*(4e-08-0.0)+(LN))<7e-08)?5.5e-08:4e-08)):1.5e-07):(6e-08+3e-08+(((2*(4e-08-0.0)+(LN))<7e-08)?5.5e-08:4e-08))))*((WN)/(1)))+((((WN)/(1))<7.95e-08)?((WN)/(1))*3e-08+((((((WN)/(1))<7.95e-08)?(((6e-08+3e-08+(((2*(4e-08-0.0)+(LN))<7e-08)?5.5e-08:4e-08))>1.5e-07)?(6e-08+3e-08+(((2*(4e-08-0.0)+(LN))<7e-08)?5.5e-08:4e-08)):1.5e-07):(6e-08+3e-08+(((2*(4e-08-0.0)+(LN))<7e-08)?5.5e-08:4e-08))))-3e-08)*8e-08:(((((WN)/(1))<7.95e-08)?(((6e-08+3e-08+(((2*(4e-08-0.0)+(LN))<7e-08)?5.5e-08:4e-08))>1.5e-07)?(6e-08+3e-08+(((2*(4e-08-0.0)+(LN))<7e-08)?5.5e-08:4e-08)):1.5e-07):(6e-08+3e-08+(((2*(4e-08-0.0)+(LN))<7e-08)?5.5e-08:4e-08))))*((WN)/(1)))+((((WN)/(1))<7.95e-08)?2*((WN)/(1))*3e-08+(((((1)==1)?0:((((WN)/(1))<7.95e-08)?(7e-08+((max(1.4e-07,(6e-08+(2*(((2*(4e-08-0.0)+(LN))<7e-08)?5.5e-08:4e-08))))>1.8e-07)?max(1.4e-07,(6e-08+(2*(((2*(4e-08-0.0)+(LN))<7e-08)?5.5e-08:4e-08)))):1.8e-07)-7e-08):(7e-08+max(1.4e-07,(6e-08+(2*(((2*(4e-08-0.0)+(LN))<7e-08)?5.5e-08:4e-08))))-7e-08))))-2*3e-08)*8e-08:((((1)==1)?0:((((WN)/(1))<7.95e-08)?(7e-08+((max(1.4e-07,(6e-08+(2*(((2*(4e-08-0.0)+(LN))<7e-08)?5.5e-08:4e-08))))>1.8e-07)?max(1.4e-07,(6e-08+(2*(((2*(4e-08-0.0)+(LN))<7e-08)?5.5e-08:4e-08)))):1.8e-07)-7e-08):(7e-08+max(1.4e-07,(6e-08+(2*(((2*(4e-08-0.0)+(LN))<7e-08)?5.5e-08:4e-08))))-7e-08))))*((WN)/(1)))*((1)-2)/2.0) \
        pd=((int(((1)-1)/2)==int((1)/2))?((((WN)/(1))<7.95e-08)?2*(((((WN)/(1))<7.95e-08)?(((6e-08+3e-08+(((2*(4e-08-0.0)+(LN))<7e-08)?5.5e-08:4e-08))>1.5e-07)?(6e-08+3e-08+(((2*(4e-08-0.0)+(LN))<7e-08)?5.5e-08:4e-08)):1.5e-07):(6e-08+3e-08+(((2*(4e-08-0.0)+(LN))<7e-08)?5.5e-08:4e-08))))+1.6e-07:2*((((((WN)/(1))<7.95e-08)?(((6e-08+3e-08+(((2*(4e-08-0.0)+(LN))<7e-08)?5.5e-08:4e-08))>1.5e-07)?(6e-08+3e-08+(((2*(4e-08-0.0)+(LN))<7e-08)?5.5e-08:4e-08)):1.5e-07):(6e-08+3e-08+(((2*(4e-08-0.0)+(LN))<7e-08)?5.5e-08:4e-08))))+((WN)/(1))))+((((WN)/(1))<7.95e-08)?2*((((1)==1)?0:((((WN)/(1))<7.95e-08)?(7e-08+((max(1.4e-07,(6e-08+(2*(((2*(4e-08-0.0)+(LN))<7e-08)?5.5e-08:4e-08))))>1.8e-07)?max(1.4e-07,(6e-08+(2*(((2*(4e-08-0.0)+(LN))<7e-08)?5.5e-08:4e-08)))):1.8e-07)-7e-08):(7e-08+max(1.4e-07,(6e-08+(2*(((2*(4e-08-0.0)+(LN))<7e-08)?5.5e-08:4e-08))))-7e-08))))+1.6e-07:2*(((((1)==1)?0:((((WN)/(1))<7.95e-08)?(7e-08+((max(1.4e-07,(6e-08+(2*(((2*(4e-08-0.0)+(LN))<7e-08)?5.5e-08:4e-08))))>1.8e-07)?max(1.4e-07,(6e-08+(2*(((2*(4e-08-0.0)+(LN))<7e-08)?5.5e-08:4e-08)))):1.8e-07)-7e-08):(7e-08+max(1.4e-07,(6e-08+(2*(((2*(4e-08-0.0)+(LN))<7e-08)?5.5e-08:4e-08))))-7e-08))))+((WN)/(1))))*((1)-1)/2.0:((((WN)/(1))<7.95e-08)?2*((((1)==1)?0:((((WN)/(1))<7.95e-08)?(7e-08+((max(1.4e-07,(6e-08+(2*(((2*(4e-08-0.0)+(LN))<7e-08)?5.5e-08:4e-08))))>1.8e-07)?max(1.4e-07,(6e-08+(2*(((2*(4e-08-0.0)+(LN))<7e-08)?5.5e-08:4e-08)))):1.8e-07)-7e-08):(7e-08+max(1.4e-07,(6e-08+(2*(((2*(4e-08-0.0)+(LN))<7e-08)?5.5e-08:4e-08))))-7e-08))))+1.6e-07:2*(((((1)==1)?0:((((WN)/(1))<7.95e-08)?(7e-08+((max(1.4e-07,(6e-08+(2*(((2*(4e-08-0.0)+(LN))<7e-08)?5.5e-08:4e-08))))>1.8e-07)?max(1.4e-07,(6e-08+(2*(((2*(4e-08-0.0)+(LN))<7e-08)?5.5e-08:4e-08)))):1.8e-07)-7e-08):(7e-08+max(1.4e-07,(6e-08+(2*(((2*(4e-08-0.0)+(LN))<7e-08)?5.5e-08:4e-08))))-7e-08))))+((WN)/(1))))*(1)/2.0) \
        ps=((int(((1)-1)/2)==int((1)/2))?((((WN)/(1))<7.95e-08)?2*(((((WN)/(1))<7.95e-08)?(((6e-08+3e-08+(((2*(4e-08-0.0)+(LN))<7e-08)?5.5e-08:4e-08))>1.5e-07)?(6e-08+3e-08+(((2*(4e-08-0.0)+(LN))<7e-08)?5.5e-08:4e-08)):1.5e-07):(6e-08+3e-08+(((2*(4e-08-0.0)+(LN))<7e-08)?5.5e-08:4e-08))))+1.6e-07:2*((((((WN)/(1))<7.95e-08)?(((6e-08+3e-08+(((2*(4e-08-0.0)+(LN))<7e-08)?5.5e-08:4e-08))>1.5e-07)?(6e-08+3e-08+(((2*(4e-08-0.0)+(LN))<7e-08)?5.5e-08:4e-08)):1.5e-07):(6e-08+3e-08+(((2*(4e-08-0.0)+(LN))<7e-08)?5.5e-08:4e-08))))+((WN)/(1))))+((((WN)/(1))<7.95e-08)?2*((((1)==1)?0:((((WN)/(1))<7.95e-08)?(7e-08+((max(1.4e-07,(6e-08+(2*(((2*(4e-08-0.0)+(LN))<7e-08)?5.5e-08:4e-08))))>1.8e-07)?max(1.4e-07,(6e-08+(2*(((2*(4e-08-0.0)+(LN))<7e-08)?5.5e-08:4e-08)))):1.8e-07)-7e-08):(7e-08+max(1.4e-07,(6e-08+(2*(((2*(4e-08-0.0)+(LN))<7e-08)?5.5e-08:4e-08))))-7e-08))))+1.6e-07:2*(((((1)==1)?0:((((WN)/(1))<7.95e-08)?(7e-08+((max(1.4e-07,(6e-08+(2*(((2*(4e-08-0.0)+(LN))<7e-08)?5.5e-08:4e-08))))>1.8e-07)?max(1.4e-07,(6e-08+(2*(((2*(4e-08-0.0)+(LN))<7e-08)?5.5e-08:4e-08)))):1.8e-07)-7e-08):(7e-08+max(1.4e-07,(6e-08+(2*(((2*(4e-08-0.0)+(LN))<7e-08)?5.5e-08:4e-08))))-7e-08))))+((WN)/(1))))*((1)-1)/2.0:((((WN)/(1))<7.95e-08)?2*(((((WN)/(1))<7.95e-08)?(((6e-08+3e-08+(((2*(4e-08-0.0)+(LN))<7e-08)?5.5e-08:4e-08))>1.5e-07)?(6e-08+3e-08+(((2*(4e-08-0.0)+(LN))<7e-08)?5.5e-08:4e-08)):1.5e-07):(6e-08+3e-08+(((2*(4e-08-0.0)+(LN))<7e-08)?5.5e-08:4e-08))))+1.6e-07:2*((((((WN)/(1))<7.95e-08)?(((6e-08+3e-08+(((2*(4e-08-0.0)+(LN))<7e-08)?5.5e-08:4e-08))>1.5e-07)?(6e-08+3e-08+(((2*(4e-08-0.0)+(LN))<7e-08)?5.5e-08:4e-08)):1.5e-07):(6e-08+3e-08+(((2*(4e-08-0.0)+(LN))<7e-08)?5.5e-08:4e-08))))+((WN)/(1))))+((((WN)/(1))<7.95e-08)?2*(((((WN)/(1))<7.95e-08)?(((6e-08+3e-08+(((2*(4e-08-0.0)+(LN))<7e-08)?5.5e-08:4e-08))>1.5e-07)?(6e-08+3e-08+(((2*(4e-08-0.0)+(LN))<7e-08)?5.5e-08:4e-08)):1.5e-07):(6e-08+3e-08+(((2*(4e-08-0.0)+(LN))<7e-08)?5.5e-08:4e-08))))+1.6e-07:2*((((((WN)/(1))<7.95e-08)?(((6e-08+3e-08+(((2*(4e-08-0.0)+(LN))<7e-08)?5.5e-08:4e-08))>1.5e-07)?(6e-08+3e-08+(((2*(4e-08-0.0)+(LN))<7e-08)?5.5e-08:4e-08)):1.5e-07):(6e-08+3e-08+(((2*(4e-08-0.0)+(LN))<7e-08)?5.5e-08:4e-08))))+((WN)/(1))))+((((WN)/(1))<7.95e-08)?2*((((1)==1)?0:((((WN)/(1))<7.95e-08)?(7e-08+((max(1.4e-07,(6e-08+(2*(((2*(4e-08-0.0)+(LN))<7e-08)?5.5e-08:4e-08))))>1.8e-07)?max(1.4e-07,(6e-08+(2*(((2*(4e-08-0.0)+(LN))<7e-08)?5.5e-08:4e-08)))):1.8e-07)-7e-08):(7e-08+max(1.4e-07,(6e-08+(2*(((2*(4e-08-0.0)+(LN))<7e-08)?5.5e-08:4e-08))))-7e-08))))+1.6e-07:2*(((((1)==1)?0:((((WN)/(1))<7.95e-08)?(7e-08+((max(1.4e-07,(6e-08+(2*(((2*(4e-08-0.0)+(LN))<7e-08)?5.5e-08:4e-08))))>1.8e-07)?max(1.4e-07,(6e-08+(2*(((2*(4e-08-0.0)+(LN))<7e-08)?5.5e-08:4e-08)))):1.8e-07)-7e-08):(7e-08+max(1.4e-07,(6e-08+(2*(((2*(4e-08-0.0)+(LN))<7e-08)?5.5e-08:4e-08))))-7e-08))))+((WN)/(1))))*((1)-2)/2.0) \
        sa=((((WN)/(1))<7.95e-08)?(((6e-08+3e-08+(((2*(4e-08-0.0)+(LN))<7e-08)?5.5e-08:4e-08))>1.5e-07)?(6e-08+3e-08+(((2*(4e-08-0.0)+(LN))<7e-08)?5.5e-08:4e-08)):1.5e-07):(6e-08+3e-08+(((2*(4e-08-0.0)+(LN))<7e-08)?5.5e-08:4e-08))) \
        sb=((((WN)/(1))<7.95e-08)?(((6e-08+3e-08+(((2*(4e-08-0.0)+(LN))<7e-08)?5.5e-08:4e-08))>1.5e-07)?(6e-08+3e-08+(((2*(4e-08-0.0)+(LN))<7e-08)?5.5e-08:4e-08)):1.5e-07):(6e-08+3e-08+(((2*(4e-08-0.0)+(LN))<7e-08)?5.5e-08:4e-08))) \
        sd=(((1)==1)?0:((((WN)/(1))<7.95e-08)?(7e-08+((max(1.4e-07,(6e-08+(2*(((2*(4e-08-0.0)+(LN))<7e-08)?5.5e-08:4e-08))))>1.8e-07)?max(1.4e-07,(6e-08+(2*(((2*(4e-08-0.0)+(LN))<7e-08)?5.5e-08:4e-08)))):1.8e-07)-7e-08):(7e-08+max(1.4e-07,(6e-08+(2*(((2*(4e-08-0.0)+(LN))<7e-08)?5.5e-08:4e-08))))-7e-08))) \
        sca=((2e-06*2e-06)/((WN)/(1)))*(1/(80n)-1/((80n)+((WN)/(1)))) \
        scb=(1/(((WN)/(1))*2e-06))*(2e-06/10*(80n)*exp(-10*(80n)/2e-06)+((2e-06*2e-06)/100)*exp(-10*(80n)/2e-06)-(2e-06/10)*((80n)+((WN)/(1)))*exp(-10*((80n)+((WN)/(1)))/2e-06)-(2e-06*2e-06)/100*exp(-10*((80n)+((WN)/(1)))/2e-06)) \
        scc=(1/(((WN)/(1))*2e-06))*(2e-06/20*(80n)*exp(-20*(80n)/2e-06)+((2e-06*2e-06)/400)*exp(-20*(80n)/2e-06)-(2e-06/20)*((80n)+((WN)/(1)))*exp(-20*((80n)+((WN)/(1)))/2e-06)-(2e-06*2e-06)/400*exp(-20*((80n)+((WN)/(1)))/2e-06)) \
        mis_flag=1 nrd=651.163m nrs=651.163m rdscon_flag=1 cctg_flag=1
    NM14 (n30 CKbb mout GND) n_11_lplvt m=1 mf=1 w=WN l=LN nf=1 \
        ad=((int(((1)-1)/2)==int((1)/2))?((((WN)/(1))<7.95e-08)?((WN)/(1))*3e-08+((((((WN)/(1))<7.95e-08)?(((6e-08+3e-08+(((2*(4e-08-0.0)+(LN))<7e-08)?5.5e-08:4e-08))>1.5e-07)?(6e-08+3e-08+(((2*(4e-08-0.0)+(LN))<7e-08)?5.5e-08:4e-08)):1.5e-07):(6e-08+3e-08+(((2*(4e-08-0.0)+(LN))<7e-08)?5.5e-08:4e-08))))-3e-08)*8e-08:(((((WN)/(1))<7.95e-08)?(((6e-08+3e-08+(((2*(4e-08-0.0)+(LN))<7e-08)?5.5e-08:4e-08))>1.5e-07)?(6e-08+3e-08+(((2*(4e-08-0.0)+(LN))<7e-08)?5.5e-08:4e-08)):1.5e-07):(6e-08+3e-08+(((2*(4e-08-0.0)+(LN))<7e-08)?5.5e-08:4e-08))))*((WN)/(1)))+((((WN)/(1))<7.95e-08)?2*((WN)/(1))*3e-08+(((((1)==1)?0:((((WN)/(1))<7.95e-08)?(7e-08+((max(1.4e-07,(6e-08+(2*(((2*(4e-08-0.0)+(LN))<7e-08)?5.5e-08:4e-08))))>1.8e-07)?max(1.4e-07,(6e-08+(2*(((2*(4e-08-0.0)+(LN))<7e-08)?5.5e-08:4e-08)))):1.8e-07)-7e-08):(7e-08+max(1.4e-07,(6e-08+(2*(((2*(4e-08-0.0)+(LN))<7e-08)?5.5e-08:4e-08))))-7e-08))))-2*3e-08)*8e-08:((((1)==1)?0:((((WN)/(1))<7.95e-08)?(7e-08+((max(1.4e-07,(6e-08+(2*(((2*(4e-08-0.0)+(LN))<7e-08)?5.5e-08:4e-08))))>1.8e-07)?max(1.4e-07,(6e-08+(2*(((2*(4e-08-0.0)+(LN))<7e-08)?5.5e-08:4e-08)))):1.8e-07)-7e-08):(7e-08+max(1.4e-07,(6e-08+(2*(((2*(4e-08-0.0)+(LN))<7e-08)?5.5e-08:4e-08))))-7e-08))))*((WN)/(1)))*((1)-1)/2.0:((((WN)/(1))<7.95e-08)?2*((WN)/(1))*3e-08+(((((1)==1)?0:((((WN)/(1))<7.95e-08)?(7e-08+((max(1.4e-07,(6e-08+(2*(((2*(4e-08-0.0)+(LN))<7e-08)?5.5e-08:4e-08))))>1.8e-07)?max(1.4e-07,(6e-08+(2*(((2*(4e-08-0.0)+(LN))<7e-08)?5.5e-08:4e-08)))):1.8e-07)-7e-08):(7e-08+max(1.4e-07,(6e-08+(2*(((2*(4e-08-0.0)+(LN))<7e-08)?5.5e-08:4e-08))))-7e-08))))-2*3e-08)*8e-08:((((1)==1)?0:((((WN)/(1))<7.95e-08)?(7e-08+((max(1.4e-07,(6e-08+(2*(((2*(4e-08-0.0)+(LN))<7e-08)?5.5e-08:4e-08))))>1.8e-07)?max(1.4e-07,(6e-08+(2*(((2*(4e-08-0.0)+(LN))<7e-08)?5.5e-08:4e-08)))):1.8e-07)-7e-08):(7e-08+max(1.4e-07,(6e-08+(2*(((2*(4e-08-0.0)+(LN))<7e-08)?5.5e-08:4e-08))))-7e-08))))*((WN)/(1)))*(1)/2.0) \
        as=((int(((1)-1)/2)==int((1)/2))?((((WN)/(1))<7.95e-08)?((WN)/(1))*3e-08+((((((WN)/(1))<7.95e-08)?(((6e-08+3e-08+(((2*(4e-08-0.0)+(LN))<7e-08)?5.5e-08:4e-08))>1.5e-07)?(6e-08+3e-08+(((2*(4e-08-0.0)+(LN))<7e-08)?5.5e-08:4e-08)):1.5e-07):(6e-08+3e-08+(((2*(4e-08-0.0)+(LN))<7e-08)?5.5e-08:4e-08))))-3e-08)*8e-08:(((((WN)/(1))<7.95e-08)?(((6e-08+3e-08+(((2*(4e-08-0.0)+(LN))<7e-08)?5.5e-08:4e-08))>1.5e-07)?(6e-08+3e-08+(((2*(4e-08-0.0)+(LN))<7e-08)?5.5e-08:4e-08)):1.5e-07):(6e-08+3e-08+(((2*(4e-08-0.0)+(LN))<7e-08)?5.5e-08:4e-08))))*((WN)/(1)))+((((WN)/(1))<7.95e-08)?2*((WN)/(1))*3e-08+(((((1)==1)?0:((((WN)/(1))<7.95e-08)?(7e-08+((max(1.4e-07,(6e-08+(2*(((2*(4e-08-0.0)+(LN))<7e-08)?5.5e-08:4e-08))))>1.8e-07)?max(1.4e-07,(6e-08+(2*(((2*(4e-08-0.0)+(LN))<7e-08)?5.5e-08:4e-08)))):1.8e-07)-7e-08):(7e-08+max(1.4e-07,(6e-08+(2*(((2*(4e-08-0.0)+(LN))<7e-08)?5.5e-08:4e-08))))-7e-08))))-2*3e-08)*8e-08:((((1)==1)?0:((((WN)/(1))<7.95e-08)?(7e-08+((max(1.4e-07,(6e-08+(2*(((2*(4e-08-0.0)+(LN))<7e-08)?5.5e-08:4e-08))))>1.8e-07)?max(1.4e-07,(6e-08+(2*(((2*(4e-08-0.0)+(LN))<7e-08)?5.5e-08:4e-08)))):1.8e-07)-7e-08):(7e-08+max(1.4e-07,(6e-08+(2*(((2*(4e-08-0.0)+(LN))<7e-08)?5.5e-08:4e-08))))-7e-08))))*((WN)/(1)))*((1)-1)/2.0:((((WN)/(1))<7.95e-08)?((WN)/(1))*3e-08+((((((WN)/(1))<7.95e-08)?(((6e-08+3e-08+(((2*(4e-08-0.0)+(LN))<7e-08)?5.5e-08:4e-08))>1.5e-07)?(6e-08+3e-08+(((2*(4e-08-0.0)+(LN))<7e-08)?5.5e-08:4e-08)):1.5e-07):(6e-08+3e-08+(((2*(4e-08-0.0)+(LN))<7e-08)?5.5e-08:4e-08))))-3e-08)*8e-08:(((((WN)/(1))<7.95e-08)?(((6e-08+3e-08+(((2*(4e-08-0.0)+(LN))<7e-08)?5.5e-08:4e-08))>1.5e-07)?(6e-08+3e-08+(((2*(4e-08-0.0)+(LN))<7e-08)?5.5e-08:4e-08)):1.5e-07):(6e-08+3e-08+(((2*(4e-08-0.0)+(LN))<7e-08)?5.5e-08:4e-08))))*((WN)/(1)))+((((WN)/(1))<7.95e-08)?((WN)/(1))*3e-08+((((((WN)/(1))<7.95e-08)?(((6e-08+3e-08+(((2*(4e-08-0.0)+(LN))<7e-08)?5.5e-08:4e-08))>1.5e-07)?(6e-08+3e-08+(((2*(4e-08-0.0)+(LN))<7e-08)?5.5e-08:4e-08)):1.5e-07):(6e-08+3e-08+(((2*(4e-08-0.0)+(LN))<7e-08)?5.5e-08:4e-08))))-3e-08)*8e-08:(((((WN)/(1))<7.95e-08)?(((6e-08+3e-08+(((2*(4e-08-0.0)+(LN))<7e-08)?5.5e-08:4e-08))>1.5e-07)?(6e-08+3e-08+(((2*(4e-08-0.0)+(LN))<7e-08)?5.5e-08:4e-08)):1.5e-07):(6e-08+3e-08+(((2*(4e-08-0.0)+(LN))<7e-08)?5.5e-08:4e-08))))*((WN)/(1)))+((((WN)/(1))<7.95e-08)?2*((WN)/(1))*3e-08+(((((1)==1)?0:((((WN)/(1))<7.95e-08)?(7e-08+((max(1.4e-07,(6e-08+(2*(((2*(4e-08-0.0)+(LN))<7e-08)?5.5e-08:4e-08))))>1.8e-07)?max(1.4e-07,(6e-08+(2*(((2*(4e-08-0.0)+(LN))<7e-08)?5.5e-08:4e-08)))):1.8e-07)-7e-08):(7e-08+max(1.4e-07,(6e-08+(2*(((2*(4e-08-0.0)+(LN))<7e-08)?5.5e-08:4e-08))))-7e-08))))-2*3e-08)*8e-08:((((1)==1)?0:((((WN)/(1))<7.95e-08)?(7e-08+((max(1.4e-07,(6e-08+(2*(((2*(4e-08-0.0)+(LN))<7e-08)?5.5e-08:4e-08))))>1.8e-07)?max(1.4e-07,(6e-08+(2*(((2*(4e-08-0.0)+(LN))<7e-08)?5.5e-08:4e-08)))):1.8e-07)-7e-08):(7e-08+max(1.4e-07,(6e-08+(2*(((2*(4e-08-0.0)+(LN))<7e-08)?5.5e-08:4e-08))))-7e-08))))*((WN)/(1)))*((1)-2)/2.0) \
        pd=((int(((1)-1)/2)==int((1)/2))?((((WN)/(1))<7.95e-08)?2*(((((WN)/(1))<7.95e-08)?(((6e-08+3e-08+(((2*(4e-08-0.0)+(LN))<7e-08)?5.5e-08:4e-08))>1.5e-07)?(6e-08+3e-08+(((2*(4e-08-0.0)+(LN))<7e-08)?5.5e-08:4e-08)):1.5e-07):(6e-08+3e-08+(((2*(4e-08-0.0)+(LN))<7e-08)?5.5e-08:4e-08))))+1.6e-07:2*((((((WN)/(1))<7.95e-08)?(((6e-08+3e-08+(((2*(4e-08-0.0)+(LN))<7e-08)?5.5e-08:4e-08))>1.5e-07)?(6e-08+3e-08+(((2*(4e-08-0.0)+(LN))<7e-08)?5.5e-08:4e-08)):1.5e-07):(6e-08+3e-08+(((2*(4e-08-0.0)+(LN))<7e-08)?5.5e-08:4e-08))))+((WN)/(1))))+((((WN)/(1))<7.95e-08)?2*((((1)==1)?0:((((WN)/(1))<7.95e-08)?(7e-08+((max(1.4e-07,(6e-08+(2*(((2*(4e-08-0.0)+(LN))<7e-08)?5.5e-08:4e-08))))>1.8e-07)?max(1.4e-07,(6e-08+(2*(((2*(4e-08-0.0)+(LN))<7e-08)?5.5e-08:4e-08)))):1.8e-07)-7e-08):(7e-08+max(1.4e-07,(6e-08+(2*(((2*(4e-08-0.0)+(LN))<7e-08)?5.5e-08:4e-08))))-7e-08))))+1.6e-07:2*(((((1)==1)?0:((((WN)/(1))<7.95e-08)?(7e-08+((max(1.4e-07,(6e-08+(2*(((2*(4e-08-0.0)+(LN))<7e-08)?5.5e-08:4e-08))))>1.8e-07)?max(1.4e-07,(6e-08+(2*(((2*(4e-08-0.0)+(LN))<7e-08)?5.5e-08:4e-08)))):1.8e-07)-7e-08):(7e-08+max(1.4e-07,(6e-08+(2*(((2*(4e-08-0.0)+(LN))<7e-08)?5.5e-08:4e-08))))-7e-08))))+((WN)/(1))))*((1)-1)/2.0:((((WN)/(1))<7.95e-08)?2*((((1)==1)?0:((((WN)/(1))<7.95e-08)?(7e-08+((max(1.4e-07,(6e-08+(2*(((2*(4e-08-0.0)+(LN))<7e-08)?5.5e-08:4e-08))))>1.8e-07)?max(1.4e-07,(6e-08+(2*(((2*(4e-08-0.0)+(LN))<7e-08)?5.5e-08:4e-08)))):1.8e-07)-7e-08):(7e-08+max(1.4e-07,(6e-08+(2*(((2*(4e-08-0.0)+(LN))<7e-08)?5.5e-08:4e-08))))-7e-08))))+1.6e-07:2*(((((1)==1)?0:((((WN)/(1))<7.95e-08)?(7e-08+((max(1.4e-07,(6e-08+(2*(((2*(4e-08-0.0)+(LN))<7e-08)?5.5e-08:4e-08))))>1.8e-07)?max(1.4e-07,(6e-08+(2*(((2*(4e-08-0.0)+(LN))<7e-08)?5.5e-08:4e-08)))):1.8e-07)-7e-08):(7e-08+max(1.4e-07,(6e-08+(2*(((2*(4e-08-0.0)+(LN))<7e-08)?5.5e-08:4e-08))))-7e-08))))+((WN)/(1))))*(1)/2.0) \
        ps=((int(((1)-1)/2)==int((1)/2))?((((WN)/(1))<7.95e-08)?2*(((((WN)/(1))<7.95e-08)?(((6e-08+3e-08+(((2*(4e-08-0.0)+(LN))<7e-08)?5.5e-08:4e-08))>1.5e-07)?(6e-08+3e-08+(((2*(4e-08-0.0)+(LN))<7e-08)?5.5e-08:4e-08)):1.5e-07):(6e-08+3e-08+(((2*(4e-08-0.0)+(LN))<7e-08)?5.5e-08:4e-08))))+1.6e-07:2*((((((WN)/(1))<7.95e-08)?(((6e-08+3e-08+(((2*(4e-08-0.0)+(LN))<7e-08)?5.5e-08:4e-08))>1.5e-07)?(6e-08+3e-08+(((2*(4e-08-0.0)+(LN))<7e-08)?5.5e-08:4e-08)):1.5e-07):(6e-08+3e-08+(((2*(4e-08-0.0)+(LN))<7e-08)?5.5e-08:4e-08))))+((WN)/(1))))+((((WN)/(1))<7.95e-08)?2*((((1)==1)?0:((((WN)/(1))<7.95e-08)?(7e-08+((max(1.4e-07,(6e-08+(2*(((2*(4e-08-0.0)+(LN))<7e-08)?5.5e-08:4e-08))))>1.8e-07)?max(1.4e-07,(6e-08+(2*(((2*(4e-08-0.0)+(LN))<7e-08)?5.5e-08:4e-08)))):1.8e-07)-7e-08):(7e-08+max(1.4e-07,(6e-08+(2*(((2*(4e-08-0.0)+(LN))<7e-08)?5.5e-08:4e-08))))-7e-08))))+1.6e-07:2*(((((1)==1)?0:((((WN)/(1))<7.95e-08)?(7e-08+((max(1.4e-07,(6e-08+(2*(((2*(4e-08-0.0)+(LN))<7e-08)?5.5e-08:4e-08))))>1.8e-07)?max(1.4e-07,(6e-08+(2*(((2*(4e-08-0.0)+(LN))<7e-08)?5.5e-08:4e-08)))):1.8e-07)-7e-08):(7e-08+max(1.4e-07,(6e-08+(2*(((2*(4e-08-0.0)+(LN))<7e-08)?5.5e-08:4e-08))))-7e-08))))+((WN)/(1))))*((1)-1)/2.0:((((WN)/(1))<7.95e-08)?2*(((((WN)/(1))<7.95e-08)?(((6e-08+3e-08+(((2*(4e-08-0.0)+(LN))<7e-08)?5.5e-08:4e-08))>1.5e-07)?(6e-08+3e-08+(((2*(4e-08-0.0)+(LN))<7e-08)?5.5e-08:4e-08)):1.5e-07):(6e-08+3e-08+(((2*(4e-08-0.0)+(LN))<7e-08)?5.5e-08:4e-08))))+1.6e-07:2*((((((WN)/(1))<7.95e-08)?(((6e-08+3e-08+(((2*(4e-08-0.0)+(LN))<7e-08)?5.5e-08:4e-08))>1.5e-07)?(6e-08+3e-08+(((2*(4e-08-0.0)+(LN))<7e-08)?5.5e-08:4e-08)):1.5e-07):(6e-08+3e-08+(((2*(4e-08-0.0)+(LN))<7e-08)?5.5e-08:4e-08))))+((WN)/(1))))+((((WN)/(1))<7.95e-08)?2*(((((WN)/(1))<7.95e-08)?(((6e-08+3e-08+(((2*(4e-08-0.0)+(LN))<7e-08)?5.5e-08:4e-08))>1.5e-07)?(6e-08+3e-08+(((2*(4e-08-0.0)+(LN))<7e-08)?5.5e-08:4e-08)):1.5e-07):(6e-08+3e-08+(((2*(4e-08-0.0)+(LN))<7e-08)?5.5e-08:4e-08))))+1.6e-07:2*((((((WN)/(1))<7.95e-08)?(((6e-08+3e-08+(((2*(4e-08-0.0)+(LN))<7e-08)?5.5e-08:4e-08))>1.5e-07)?(6e-08+3e-08+(((2*(4e-08-0.0)+(LN))<7e-08)?5.5e-08:4e-08)):1.5e-07):(6e-08+3e-08+(((2*(4e-08-0.0)+(LN))<7e-08)?5.5e-08:4e-08))))+((WN)/(1))))+((((WN)/(1))<7.95e-08)?2*((((1)==1)?0:((((WN)/(1))<7.95e-08)?(7e-08+((max(1.4e-07,(6e-08+(2*(((2*(4e-08-0.0)+(LN))<7e-08)?5.5e-08:4e-08))))>1.8e-07)?max(1.4e-07,(6e-08+(2*(((2*(4e-08-0.0)+(LN))<7e-08)?5.5e-08:4e-08)))):1.8e-07)-7e-08):(7e-08+max(1.4e-07,(6e-08+(2*(((2*(4e-08-0.0)+(LN))<7e-08)?5.5e-08:4e-08))))-7e-08))))+1.6e-07:2*(((((1)==1)?0:((((WN)/(1))<7.95e-08)?(7e-08+((max(1.4e-07,(6e-08+(2*(((2*(4e-08-0.0)+(LN))<7e-08)?5.5e-08:4e-08))))>1.8e-07)?max(1.4e-07,(6e-08+(2*(((2*(4e-08-0.0)+(LN))<7e-08)?5.5e-08:4e-08)))):1.8e-07)-7e-08):(7e-08+max(1.4e-07,(6e-08+(2*(((2*(4e-08-0.0)+(LN))<7e-08)?5.5e-08:4e-08))))-7e-08))))+((WN)/(1))))*((1)-2)/2.0) \
        sa=((((WN)/(1))<7.95e-08)?(((6e-08+3e-08+(((2*(4e-08-0.0)+(LN))<7e-08)?5.5e-08:4e-08))>1.5e-07)?(6e-08+3e-08+(((2*(4e-08-0.0)+(LN))<7e-08)?5.5e-08:4e-08)):1.5e-07):(6e-08+3e-08+(((2*(4e-08-0.0)+(LN))<7e-08)?5.5e-08:4e-08))) \
        sb=((((WN)/(1))<7.95e-08)?(((6e-08+3e-08+(((2*(4e-08-0.0)+(LN))<7e-08)?5.5e-08:4e-08))>1.5e-07)?(6e-08+3e-08+(((2*(4e-08-0.0)+(LN))<7e-08)?5.5e-08:4e-08)):1.5e-07):(6e-08+3e-08+(((2*(4e-08-0.0)+(LN))<7e-08)?5.5e-08:4e-08))) \
        sd=(((1)==1)?0:((((WN)/(1))<7.95e-08)?(7e-08+((max(1.4e-07,(6e-08+(2*(((2*(4e-08-0.0)+(LN))<7e-08)?5.5e-08:4e-08))))>1.8e-07)?max(1.4e-07,(6e-08+(2*(((2*(4e-08-0.0)+(LN))<7e-08)?5.5e-08:4e-08)))):1.8e-07)-7e-08):(7e-08+max(1.4e-07,(6e-08+(2*(((2*(4e-08-0.0)+(LN))<7e-08)?5.5e-08:4e-08))))-7e-08))) \
        sca=((2e-06*2e-06)/((WN)/(1)))*(1/(80n)-1/((80n)+((WN)/(1)))) \
        scb=(1/(((WN)/(1))*2e-06))*(2e-06/10*(80n)*exp(-10*(80n)/2e-06)+((2e-06*2e-06)/100)*exp(-10*(80n)/2e-06)-(2e-06/10)*((80n)+((WN)/(1)))*exp(-10*((80n)+((WN)/(1)))/2e-06)-(2e-06*2e-06)/100*exp(-10*((80n)+((WN)/(1)))/2e-06)) \
        scc=(1/(((WN)/(1))*2e-06))*(2e-06/20*(80n)*exp(-20*(80n)/2e-06)+((2e-06*2e-06)/400)*exp(-20*(80n)/2e-06)-(2e-06/20)*((80n)+((WN)/(1)))*exp(-20*((80n)+((WN)/(1)))/2e-06)-(2e-06*2e-06)/400*exp(-20*((80n)+((WN)/(1)))/2e-06)) \
        mis_flag=1 nrd=651.163m nrs=651.163m rdscon_flag=1 cctg_flag=1
    NM7 (qbint n30 n35 GND) n_11_lplvt m=1 mf=1 w=WN l=LN nf=1 \
        ad=((int(((1)-1)/2)==int((1)/2))?((((WN)/(1))<7.95e-08)?((WN)/(1))*3e-08+((((((WN)/(1))<7.95e-08)?(((6e-08+3e-08+(((2*(4e-08-0.0)+(LN))<7e-08)?5.5e-08:4e-08))>1.5e-07)?(6e-08+3e-08+(((2*(4e-08-0.0)+(LN))<7e-08)?5.5e-08:4e-08)):1.5e-07):(6e-08+3e-08+(((2*(4e-08-0.0)+(LN))<7e-08)?5.5e-08:4e-08))))-3e-08)*8e-08:(((((WN)/(1))<7.95e-08)?(((6e-08+3e-08+(((2*(4e-08-0.0)+(LN))<7e-08)?5.5e-08:4e-08))>1.5e-07)?(6e-08+3e-08+(((2*(4e-08-0.0)+(LN))<7e-08)?5.5e-08:4e-08)):1.5e-07):(6e-08+3e-08+(((2*(4e-08-0.0)+(LN))<7e-08)?5.5e-08:4e-08))))*((WN)/(1)))+((((WN)/(1))<7.95e-08)?2*((WN)/(1))*3e-08+(((((1)==1)?0:((((WN)/(1))<7.95e-08)?(7e-08+((max(1.4e-07,(6e-08+(2*(((2*(4e-08-0.0)+(LN))<7e-08)?5.5e-08:4e-08))))>1.8e-07)?max(1.4e-07,(6e-08+(2*(((2*(4e-08-0.0)+(LN))<7e-08)?5.5e-08:4e-08)))):1.8e-07)-7e-08):(7e-08+max(1.4e-07,(6e-08+(2*(((2*(4e-08-0.0)+(LN))<7e-08)?5.5e-08:4e-08))))-7e-08))))-2*3e-08)*8e-08:((((1)==1)?0:((((WN)/(1))<7.95e-08)?(7e-08+((max(1.4e-07,(6e-08+(2*(((2*(4e-08-0.0)+(LN))<7e-08)?5.5e-08:4e-08))))>1.8e-07)?max(1.4e-07,(6e-08+(2*(((2*(4e-08-0.0)+(LN))<7e-08)?5.5e-08:4e-08)))):1.8e-07)-7e-08):(7e-08+max(1.4e-07,(6e-08+(2*(((2*(4e-08-0.0)+(LN))<7e-08)?5.5e-08:4e-08))))-7e-08))))*((WN)/(1)))*((1)-1)/2.0:((((WN)/(1))<7.95e-08)?2*((WN)/(1))*3e-08+(((((1)==1)?0:((((WN)/(1))<7.95e-08)?(7e-08+((max(1.4e-07,(6e-08+(2*(((2*(4e-08-0.0)+(LN))<7e-08)?5.5e-08:4e-08))))>1.8e-07)?max(1.4e-07,(6e-08+(2*(((2*(4e-08-0.0)+(LN))<7e-08)?5.5e-08:4e-08)))):1.8e-07)-7e-08):(7e-08+max(1.4e-07,(6e-08+(2*(((2*(4e-08-0.0)+(LN))<7e-08)?5.5e-08:4e-08))))-7e-08))))-2*3e-08)*8e-08:((((1)==1)?0:((((WN)/(1))<7.95e-08)?(7e-08+((max(1.4e-07,(6e-08+(2*(((2*(4e-08-0.0)+(LN))<7e-08)?5.5e-08:4e-08))))>1.8e-07)?max(1.4e-07,(6e-08+(2*(((2*(4e-08-0.0)+(LN))<7e-08)?5.5e-08:4e-08)))):1.8e-07)-7e-08):(7e-08+max(1.4e-07,(6e-08+(2*(((2*(4e-08-0.0)+(LN))<7e-08)?5.5e-08:4e-08))))-7e-08))))*((WN)/(1)))*(1)/2.0) \
        as=((int(((1)-1)/2)==int((1)/2))?((((WN)/(1))<7.95e-08)?((WN)/(1))*3e-08+((((((WN)/(1))<7.95e-08)?(((6e-08+3e-08+(((2*(4e-08-0.0)+(LN))<7e-08)?5.5e-08:4e-08))>1.5e-07)?(6e-08+3e-08+(((2*(4e-08-0.0)+(LN))<7e-08)?5.5e-08:4e-08)):1.5e-07):(6e-08+3e-08+(((2*(4e-08-0.0)+(LN))<7e-08)?5.5e-08:4e-08))))-3e-08)*8e-08:(((((WN)/(1))<7.95e-08)?(((6e-08+3e-08+(((2*(4e-08-0.0)+(LN))<7e-08)?5.5e-08:4e-08))>1.5e-07)?(6e-08+3e-08+(((2*(4e-08-0.0)+(LN))<7e-08)?5.5e-08:4e-08)):1.5e-07):(6e-08+3e-08+(((2*(4e-08-0.0)+(LN))<7e-08)?5.5e-08:4e-08))))*((WN)/(1)))+((((WN)/(1))<7.95e-08)?2*((WN)/(1))*3e-08+(((((1)==1)?0:((((WN)/(1))<7.95e-08)?(7e-08+((max(1.4e-07,(6e-08+(2*(((2*(4e-08-0.0)+(LN))<7e-08)?5.5e-08:4e-08))))>1.8e-07)?max(1.4e-07,(6e-08+(2*(((2*(4e-08-0.0)+(LN))<7e-08)?5.5e-08:4e-08)))):1.8e-07)-7e-08):(7e-08+max(1.4e-07,(6e-08+(2*(((2*(4e-08-0.0)+(LN))<7e-08)?5.5e-08:4e-08))))-7e-08))))-2*3e-08)*8e-08:((((1)==1)?0:((((WN)/(1))<7.95e-08)?(7e-08+((max(1.4e-07,(6e-08+(2*(((2*(4e-08-0.0)+(LN))<7e-08)?5.5e-08:4e-08))))>1.8e-07)?max(1.4e-07,(6e-08+(2*(((2*(4e-08-0.0)+(LN))<7e-08)?5.5e-08:4e-08)))):1.8e-07)-7e-08):(7e-08+max(1.4e-07,(6e-08+(2*(((2*(4e-08-0.0)+(LN))<7e-08)?5.5e-08:4e-08))))-7e-08))))*((WN)/(1)))*((1)-1)/2.0:((((WN)/(1))<7.95e-08)?((WN)/(1))*3e-08+((((((WN)/(1))<7.95e-08)?(((6e-08+3e-08+(((2*(4e-08-0.0)+(LN))<7e-08)?5.5e-08:4e-08))>1.5e-07)?(6e-08+3e-08+(((2*(4e-08-0.0)+(LN))<7e-08)?5.5e-08:4e-08)):1.5e-07):(6e-08+3e-08+(((2*(4e-08-0.0)+(LN))<7e-08)?5.5e-08:4e-08))))-3e-08)*8e-08:(((((WN)/(1))<7.95e-08)?(((6e-08+3e-08+(((2*(4e-08-0.0)+(LN))<7e-08)?5.5e-08:4e-08))>1.5e-07)?(6e-08+3e-08+(((2*(4e-08-0.0)+(LN))<7e-08)?5.5e-08:4e-08)):1.5e-07):(6e-08+3e-08+(((2*(4e-08-0.0)+(LN))<7e-08)?5.5e-08:4e-08))))*((WN)/(1)))+((((WN)/(1))<7.95e-08)?((WN)/(1))*3e-08+((((((WN)/(1))<7.95e-08)?(((6e-08+3e-08+(((2*(4e-08-0.0)+(LN))<7e-08)?5.5e-08:4e-08))>1.5e-07)?(6e-08+3e-08+(((2*(4e-08-0.0)+(LN))<7e-08)?5.5e-08:4e-08)):1.5e-07):(6e-08+3e-08+(((2*(4e-08-0.0)+(LN))<7e-08)?5.5e-08:4e-08))))-3e-08)*8e-08:(((((WN)/(1))<7.95e-08)?(((6e-08+3e-08+(((2*(4e-08-0.0)+(LN))<7e-08)?5.5e-08:4e-08))>1.5e-07)?(6e-08+3e-08+(((2*(4e-08-0.0)+(LN))<7e-08)?5.5e-08:4e-08)):1.5e-07):(6e-08+3e-08+(((2*(4e-08-0.0)+(LN))<7e-08)?5.5e-08:4e-08))))*((WN)/(1)))+((((WN)/(1))<7.95e-08)?2*((WN)/(1))*3e-08+(((((1)==1)?0:((((WN)/(1))<7.95e-08)?(7e-08+((max(1.4e-07,(6e-08+(2*(((2*(4e-08-0.0)+(LN))<7e-08)?5.5e-08:4e-08))))>1.8e-07)?max(1.4e-07,(6e-08+(2*(((2*(4e-08-0.0)+(LN))<7e-08)?5.5e-08:4e-08)))):1.8e-07)-7e-08):(7e-08+max(1.4e-07,(6e-08+(2*(((2*(4e-08-0.0)+(LN))<7e-08)?5.5e-08:4e-08))))-7e-08))))-2*3e-08)*8e-08:((((1)==1)?0:((((WN)/(1))<7.95e-08)?(7e-08+((max(1.4e-07,(6e-08+(2*(((2*(4e-08-0.0)+(LN))<7e-08)?5.5e-08:4e-08))))>1.8e-07)?max(1.4e-07,(6e-08+(2*(((2*(4e-08-0.0)+(LN))<7e-08)?5.5e-08:4e-08)))):1.8e-07)-7e-08):(7e-08+max(1.4e-07,(6e-08+(2*(((2*(4e-08-0.0)+(LN))<7e-08)?5.5e-08:4e-08))))-7e-08))))*((WN)/(1)))*((1)-2)/2.0) \
        pd=((int(((1)-1)/2)==int((1)/2))?((((WN)/(1))<7.95e-08)?2*(((((WN)/(1))<7.95e-08)?(((6e-08+3e-08+(((2*(4e-08-0.0)+(LN))<7e-08)?5.5e-08:4e-08))>1.5e-07)?(6e-08+3e-08+(((2*(4e-08-0.0)+(LN))<7e-08)?5.5e-08:4e-08)):1.5e-07):(6e-08+3e-08+(((2*(4e-08-0.0)+(LN))<7e-08)?5.5e-08:4e-08))))+1.6e-07:2*((((((WN)/(1))<7.95e-08)?(((6e-08+3e-08+(((2*(4e-08-0.0)+(LN))<7e-08)?5.5e-08:4e-08))>1.5e-07)?(6e-08+3e-08+(((2*(4e-08-0.0)+(LN))<7e-08)?5.5e-08:4e-08)):1.5e-07):(6e-08+3e-08+(((2*(4e-08-0.0)+(LN))<7e-08)?5.5e-08:4e-08))))+((WN)/(1))))+((((WN)/(1))<7.95e-08)?2*((((1)==1)?0:((((WN)/(1))<7.95e-08)?(7e-08+((max(1.4e-07,(6e-08+(2*(((2*(4e-08-0.0)+(LN))<7e-08)?5.5e-08:4e-08))))>1.8e-07)?max(1.4e-07,(6e-08+(2*(((2*(4e-08-0.0)+(LN))<7e-08)?5.5e-08:4e-08)))):1.8e-07)-7e-08):(7e-08+max(1.4e-07,(6e-08+(2*(((2*(4e-08-0.0)+(LN))<7e-08)?5.5e-08:4e-08))))-7e-08))))+1.6e-07:2*(((((1)==1)?0:((((WN)/(1))<7.95e-08)?(7e-08+((max(1.4e-07,(6e-08+(2*(((2*(4e-08-0.0)+(LN))<7e-08)?5.5e-08:4e-08))))>1.8e-07)?max(1.4e-07,(6e-08+(2*(((2*(4e-08-0.0)+(LN))<7e-08)?5.5e-08:4e-08)))):1.8e-07)-7e-08):(7e-08+max(1.4e-07,(6e-08+(2*(((2*(4e-08-0.0)+(LN))<7e-08)?5.5e-08:4e-08))))-7e-08))))+((WN)/(1))))*((1)-1)/2.0:((((WN)/(1))<7.95e-08)?2*((((1)==1)?0:((((WN)/(1))<7.95e-08)?(7e-08+((max(1.4e-07,(6e-08+(2*(((2*(4e-08-0.0)+(LN))<7e-08)?5.5e-08:4e-08))))>1.8e-07)?max(1.4e-07,(6e-08+(2*(((2*(4e-08-0.0)+(LN))<7e-08)?5.5e-08:4e-08)))):1.8e-07)-7e-08):(7e-08+max(1.4e-07,(6e-08+(2*(((2*(4e-08-0.0)+(LN))<7e-08)?5.5e-08:4e-08))))-7e-08))))+1.6e-07:2*(((((1)==1)?0:((((WN)/(1))<7.95e-08)?(7e-08+((max(1.4e-07,(6e-08+(2*(((2*(4e-08-0.0)+(LN))<7e-08)?5.5e-08:4e-08))))>1.8e-07)?max(1.4e-07,(6e-08+(2*(((2*(4e-08-0.0)+(LN))<7e-08)?5.5e-08:4e-08)))):1.8e-07)-7e-08):(7e-08+max(1.4e-07,(6e-08+(2*(((2*(4e-08-0.0)+(LN))<7e-08)?5.5e-08:4e-08))))-7e-08))))+((WN)/(1))))*(1)/2.0) \