// Generated for: spectre
// Generated on: Dec  2 15:28:08 2021
// Design library name: energy28
// Design cell name: char_tb
// Design view name: schematic
simulator lang=spectre
global 0
parameters LN=50n LP=70n WN=4u WP=8u
include "/home/VLSI_ANALOG/UMCLib/pdk/UMC/28/_G-01-LOGIC_MIXED_MODE28N-HPC/Designkits/Cadence_IC6/G-9FD-LOGIC_MIXED_MODE28N-HPC_UM028FDKHCC0000OA-FDK-Ver.A14_PB/UM028FDKHCC0000OA_A14_DESIGNKIT/UM028FDKHCC0000OA_A14_PB/umc28hpc/../Models/Spectre/l28hpc_mm_v1201.lib.scs" section=tt
include "/home/VLSI_ANALOG/UMCLib/pdk/UMC/28/_G-01-LOGIC_MIXED_MODE28N-HPC/Designkits/Cadence_IC6/G-9FD-LOGIC_MIXED_MODE28N-HPC_UM028FDKHCC0000OA-FDK-Ver.A14_PB/UM028FDKHCC0000OA_A14_DESIGNKIT/UM028FDKHCC0000OA_A14_PB/umc28hpc/../Models/Spectre/l28hpc_rf_v017.lib.scs" section=tt

// Library name: lowpower28
// Cell name: AOI21X1
// View name: schematic
subckt AOI21X1 A0 A1 B0 GND VDD Y
    mn2 (Y B0 GND GND) n_p9_hpculvt m=1 mf=1 w=WN l=LN nf=3 \
        ad=((int(((3)-1)/2)==int((3)/2))?((((WN)/(3))<4.95e-08)?((WN)/(3))*3e-08+(((((LN)>9e-08)?9.5e-08:(((LN)<40n)?8.5e-08:75n)))-3e-08)*5e-08:((((LN)>9e-08)?9.5e-08:(((LN)<40n)?8.5e-08:75n)))*((WN)/(3)))+((((WN)/(3))<4.95e-08)?((((((3)==1)?0:(((LN)>9e-08)?1.2e-07:(((LN)<40n)?1.1e-07:100n))))-2*3e-08)*5e-08)+2*((WN)/(3))*3e-08:((((3)==1)?0:(((LN)>9e-08)?1.2e-07:(((LN)<40n)?1.1e-07:100n))))*((WN)/(3)))*((3)-1)/2.0:((((WN)/(3))<4.95e-08)?((((((3)==1)?0:(((LN)>9e-08)?1.2e-07:(((LN)<40n)?1.1e-07:100n))))-2*3e-08)*5e-08)+2*((WN)/(3))*3e-08:((((3)==1)?0:(((LN)>9e-08)?1.2e-07:(((LN)<40n)?1.1e-07:100n))))*((WN)/(3)))*(3)/2.0) \
        as=((int(((3)-1)/2)==int((3)/2))?((((WN)/(3))<4.95e-08)?((WN)/(3))*3e-08+(((((LN)>9e-08)?9.5e-08:(((LN)<40n)?8.5e-08:75n)))-3e-08)*5e-08:((((LN)>9e-08)?9.5e-08:(((LN)<40n)?8.5e-08:75n)))*((WN)/(3)))+((((WN)/(3))<4.95e-08)?((((((3)==1)?0:(((LN)>9e-08)?1.2e-07:(((LN)<40n)?1.1e-07:100n))))-2*3e-08)*5e-08)+2*((WN)/(3))*3e-08:((((3)==1)?0:(((LN)>9e-08)?1.2e-07:(((LN)<40n)?1.1e-07:100n))))*((WN)/(3)))*((3)-1)/2.0:((((WN)/(3))<4.95e-08)?((WN)/(3))*3e-08+(((((LN)>9e-08)?9.5e-08:(((LN)<40n)?8.5e-08:75n)))-3e-08)*5e-08:((((LN)>9e-08)?9.5e-08:(((LN)<40n)?8.5e-08:75n)))*((WN)/(3)))+((((WN)/(3))<4.95e-08)?((WN)/(3))*3e-08+(((((LN)>9e-08)?9.5e-08:(((LN)<40n)?8.5e-08:75n)))-3e-08)*5e-08:((((LN)>9e-08)?9.5e-08:(((LN)<40n)?8.5e-08:75n)))*((WN)/(3)))+((((WN)/(3))<4.95e-08)?((((((3)==1)?0:(((LN)>9e-08)?1.2e-07:(((LN)<40n)?1.1e-07:100n))))-2*3e-08)*5e-08)+2*((WN)/(3))*3e-08:((((3)==1)?0:(((LN)>9e-08)?1.2e-07:(((LN)<40n)?1.1e-07:100n))))*((WN)/(3)))*((3)-2)/2.0) \
        pd=((int(((3)-1)/2)==int((3)/2))?((((WN)/(3))<4.95e-08)?2*((((LN)>9e-08)?9.5e-08:(((LN)<40n)?8.5e-08:75n)))+1e-07:2*(((((LN)>9e-08)?9.5e-08:(((LN)<40n)?8.5e-08:75n)))+((WN)/(3))))+((((WN)/(3))<4.95e-08)?2*((((3)==1)?0:(((LN)>9e-08)?1.2e-07:(((LN)<40n)?1.1e-07:100n))))+1e-07:2*(((((3)==1)?0:(((LN)>9e-08)?1.2e-07:(((LN)<40n)?1.1e-07:100n))))+((WN)/(3))))*((3)-1)/2.0:((((WN)/(3))<4.95e-08)?2*((((3)==1)?0:(((LN)>9e-08)?1.2e-07:(((LN)<40n)?1.1e-07:100n))))+1e-07:2*(((((3)==1)?0:(((LN)>9e-08)?1.2e-07:(((LN)<40n)?1.1e-07:100n))))+((WN)/(3))))*(3)/2.0) \
        ps=((int(((3)-1)/2)==int((3)/2))?((((WN)/(3))<4.95e-08)?2*((((LN)>9e-08)?9.5e-08:(((LN)<40n)?8.5e-08:75n)))+1e-07:2*(((((LN)>9e-08)?9.5e-08:(((LN)<40n)?8.5e-08:75n)))+((WN)/(3))))+((((WN)/(3))<4.95e-08)?2*((((3)==1)?0:(((LN)>9e-08)?1.2e-07:(((LN)<40n)?1.1e-07:100n))))+1e-07:2*(((((3)==1)?0:(((LN)>9e-08)?1.2e-07:(((LN)<40n)?1.1e-07:100n))))+((WN)/(3))))*((3)-1)/2.0:((((WN)/(3))<4.95e-08)?2*((((LN)>9e-08)?9.5e-08:(((LN)<40n)?8.5e-08:75n)))+1e-07:2*(((((LN)>9e-08)?9.5e-08:(((LN)<40n)?8.5e-08:75n)))+((WN)/(3))))+((((WN)/(3))<4.95e-08)?2*((((LN)>9e-08)?9.5e-08:(((LN)<40n)?8.5e-08:75n)))+1e-07:2*(((((LN)>9e-08)?9.5e-08:(((LN)<40n)?8.5e-08:75n)))+((WN)/(3))))+((((WN)/(3))<4.95e-08)?2*((((3)==1)?0:(((LN)>9e-08)?1.2e-07:(((LN)<40n)?1.1e-07:100n))))+1e-07:2*(((((3)==1)?0:(((LN)>9e-08)?1.2e-07:(((LN)<40n)?1.1e-07:100n))))+((WN)/(3))))*((3)-2)/2.0) \
        sa=(((LN)>9e-08)?9.5e-08:(((LN)<40n)?8.5e-08:75n)) \
        sb=(((LN)>9e-08)?9.5e-08:(((LN)<40n)?8.5e-08:75n)) \
        sd=(((3)==1)?0:(((LN)>9e-08)?1.2e-07:(((LN)<40n)?1.1e-07:100n))) \
        sca=((1e-06*1e-06)/((WN)/(3)))*(1/(65n)-1/((65n)+((WN)/(3)))) \
        scb=(1/(((WN)/(3))*1e-06))*(1e-06/10*(65n)*exp(-10*(65n)/1e-06)+((1e-06*1e-06)/100)*exp(-10*(65n)/1e-06)-(1e-06/10)*((65n)+((WN)/(3)))*exp(-10*((65n)+((WN)/(3)))/1e-06)-(1e-06*1e-06)/100*exp(-10*((65n)+((WN)/(3)))/1e-06)) \
        scc=(1/(((WN)/(3))*1e-06))*(1e-06/20*(65n)*exp(-20*(65n)/1e-06)+((1e-06*1e-06)/400)*exp(-20*(65n)/1e-06)-(1e-06/20)*((65n)+((WN)/(3)))*exp(-20*((65n)+((WN)/(3)))/1e-06)-(1e-06*1e-06)/400*exp(-20*((65n)+((WN)/(3)))/1e-06)) \
        mis_flag=1 nrd=538.462m nrs=538.462m cctg_flag=1 rdscon_flag=1 \
        rgate_flag=1
    NM1 (net80 A0 GND GND) n_p9_hpculvt m=1 mf=1 w=300n l=30n nf=3 \
        ad=18.5f as=18.5f pd=770n ps=770n sa=75n sb=75n sd=110n \
        sca=93.2401 scb=35.2443m scc=11.7056m mis_flag=1 nrd=538.462m \
        nrs=538.462m cctg_flag=1 rdscon_flag=1 rgate_flag=1
    NM0 (Y A1 net80 GND) n_p9_hpculvt m=1 mf=1 w=WN l=LN nf=3 \
        ad=((int(((3)-1)/2)==int((3)/2))?((((WN)/(3))<4.95e-08)?((WN)/(3))*3e-08+(((((LN)>9e-08)?9.5e-08:(((LN)<40n)?8.5e-08:75n)))-3e-08)*5e-08:((((LN)>9e-08)?9.5e-08:(((LN)<40n)?8.5e-08:75n)))*((WN)/(3)))+((((WN)/(3))<4.95e-08)?((((((3)==1)?0:(((LN)>9e-08)?1.2e-07:(((LN)<40n)?1.1e-07:100n))))-2*3e-08)*5e-08)+2*((WN)/(3))*3e-08:((((3)==1)?0:(((LN)>9e-08)?1.2e-07:(((LN)<40n)?1.1e-07:100n))))*((WN)/(3)))*((3)-1)/2.0:((((WN)/(3))<4.95e-08)?((((((3)==1)?0:(((LN)>9e-08)?1.2e-07:(((LN)<40n)?1.1e-07:100n))))-2*3e-08)*5e-08)+2*((WN)/(3))*3e-08:((((3)==1)?0:(((LN)>9e-08)?1.2e-07:(((LN)<40n)?1.1e-07:100n))))*((WN)/(3)))*(3)/2.0) \
        as=((int(((3)-1)/2)==int((3)/2))?((((WN)/(3))<4.95e-08)?((WN)/(3))*3e-08+(((((LN)>9e-08)?9.5e-08:(((LN)<40n)?8.5e-08:75n)))-3e-08)*5e-08:((((LN)>9e-08)?9.5e-08:(((LN)<40n)?8.5e-08:75n)))*((WN)/(3)))+((((WN)/(3))<4.95e-08)?((((((3)==1)?0:(((LN)>9e-08)?1.2e-07:(((LN)<40n)?1.1e-07:100n))))-2*3e-08)*5e-08)+2*((WN)/(3))*3e-08:((((3)==1)?0:(((LN)>9e-08)?1.2e-07:(((LN)<40n)?1.1e-07:100n))))*((WN)/(3)))*((3)-1)/2.0:((((WN)/(3))<4.95e-08)?((WN)/(3))*3e-08+(((((LN)>9e-08)?9.5e-08:(((LN)<40n)?8.5e-08:75n)))-3e-08)*5e-08:((((LN)>9e-08)?9.5e-08:(((LN)<40n)?8.5e-08:75n)))*((WN)/(3)))+((((WN)/(3))<4.95e-08)?((WN)/(3))*3e-08+(((((LN)>9e-08)?9.5e-08:(((LN)<40n)?8.5e-08:75n)))-3e-08)*5e-08:((((LN)>9e-08)?9.5e-08:(((LN)<40n)?8.5e-08:75n)))*((WN)/(3)))+((((WN)/(3))<4.95e-08)?((((((3)==1)?0:(((LN)>9e-08)?1.2e-07:(((LN)<40n)?1.1e-07:100n))))-2*3e-08)*5e-08)+2*((WN)/(3))*3e-08:((((3)==1)?0:(((LN)>9e-08)?1.2e-07:(((LN)<40n)?1.1e-07:100n))))*((WN)/(3)))*((3)-2)/2.0) \
        pd=((int(((3)-1)/2)==int((3)/2))?((((WN)/(3))<4.95e-08)?2*((((LN)>9e-08)?9.5e-08:(((LN)<40n)?8.5e-08:75n)))+1e-07:2*(((((LN)>9e-08)?9.5e-08:(((LN)<40n)?8.5e-08:75n)))+((WN)/(3))))+((((WN)/(3))<4.95e-08)?2*((((3)==1)?0:(((LN)>9e-08)?1.2e-07:(((LN)<40n)?1.1e-07:100n))))+1e-07:2*(((((3)==1)?0:(((LN)>9e-08)?1.2e-07:(((LN)<40n)?1.1e-07:100n))))+((WN)/(3))))*((3)-1)/2.0:((((WN)/(3))<4.95e-08)?2*((((3)==1)?0:(((LN)>9e-08)?1.2e-07:(((LN)<40n)?1.1e-07:100n))))+1e-07:2*(((((3)==1)?0:(((LN)>9e-08)?1.2e-07:(((LN)<40n)?1.1e-07:100n))))+((WN)/(3))))*(3)/2.0) \
        ps=((int(((3)-1)/2)==int((3)/2))?((((WN)/(3))<4.95e-08)?2*((((LN)>9e-08)?9.5e-08:(((LN)<40n)?8.5e-08:75n)))+1e-07:2*(((((LN)>9e-08)?9.5e-08:(((LN)<40n)?8.5e-08:75n)))+((WN)/(3))))+((((WN)/(3))<4.95e-08)?2*((((3)==1)?0:(((LN)>9e-08)?1.2e-07:(((LN)<40n)?1.1e-07:100n))))+1e-07:2*(((((3)==1)?0:(((LN)>9e-08)?1.2e-07:(((LN)<40n)?1.1e-07:100n))))+((WN)/(3))))*((3)-1)/2.0:((((WN)/(3))<4.95e-08)?2*((((LN)>9e-08)?9.5e-08:(((LN)<40n)?8.5e-08:75n)))+1e-07:2*(((((LN)>9e-08)?9.5e-08:(((LN)<40n)?8.5e-08:75n)))+((WN)/(3))))+((((WN)/(3))<4.95e-08)?2*((((LN)>9e-08)?9.5e-08:(((LN)<40n)?8.5e-08:75n)))+1e-07:2*(((((LN)>9e-08)?9.5e-08:(((LN)<40n)?8.5e-08:75n)))+((WN)/(3))))+((((WN)/(3))<4.95e-08)?2*((((3)==1)?0:(((LN)>9e-08)?1.2e-07:(((LN)<40n)?1.1e-07:100n))))+1e-07:2*(((((3)==1)?0:(((LN)>9e-08)?1.2e-07:(((LN)<40n)?1.1e-07:100n))))+((WN)/(3))))*((3)-2)/2.0) \
        sa=(((LN)>9e-08)?9.5e-08:(((LN)<40n)?8.5e-08:75n)) \
        sb=(((LN)>9e-08)?9.5e-08:(((LN)<40n)?8.5e-08:75n)) \
        sd=(((3)==1)?0:(((LN)>9e-08)?1.2e-07:(((LN)<40n)?1.1e-07:100n))) \
        sca=((1e-06*1e-06)/((WN)/(3)))*(1/(65n)-1/((65n)+((WN)/(3)))) \
        scb=(1/(((WN)/(3))*1e-06))*(1e-06/10*(65n)*exp(-10*(65n)/1e-06)+((1e-06*1e-06)/100)*exp(-10*(65n)/1e-06)-(1e-06/10)*((65n)+((WN)/(3)))*exp(-10*((65n)+((WN)/(3)))/1e-06)-(1e-06*1e-06)/100*exp(-10*((65n)+((WN)/(3)))/1e-06)) \
        scc=(1/(((WN)/(3))*1e-06))*(1e-06/20*(65n)*exp(-20*(65n)/1e-06)+((1e-06*1e-06)/400)*exp(-20*(65n)/1e-06)-(1e-06/20)*((65n)+((WN)/(3)))*exp(-20*((65n)+((WN)/(3)))/1e-06)-(1e-06*1e-06)/400*exp(-20*((65n)+((WN)/(3)))/1e-06)) \
        mis_flag=1 nrd=538.462m nrs=538.462m cctg_flag=1 rdscon_flag=1 \
        rgate_flag=1
    PM0 (net79 A1 VDD VDD) p_p9_hpculvt m=1 mf=1 w=WP l=LP nf=3 \
        ad=((int(((3)-1)/2)==int((3)/2))?((((WP)/(3))<4.95e-08)?((WP)/(3))*3e-08+(((((LP)>9e-08)?9.5e-08:(((LP)<40n)?7.5e-08:75n)))-3e-08)*5e-08:((((LP)>9e-08)?9.5e-08:(((LP)<40n)?7.5e-08:75n)))*((WP)/(3)))+((((WP)/(3))<4.95e-08)?((((((3)==1)?0:(((LP)>9e-08)?1.2e-07:(((LP)<40n)?1e-07:100n))))-2*3e-08)*5e-08)+2*((WP)/(3))*3e-08:((((3)==1)?0:(((LP)>9e-08)?1.2e-07:(((LP)<40n)?1e-07:100n))))*((WP)/(3)))*((3)-1)/2.0:((((WP)/(3))<4.95e-08)?((((((3)==1)?0:(((LP)>9e-08)?1.2e-07:(((LP)<40n)?1e-07:100n))))-2*3e-08)*5e-08)+2*((WP)/(3))*3e-08:((((3)==1)?0:(((LP)>9e-08)?1.2e-07:(((LP)<40n)?1e-07:100n))))*((WP)/(3)))*(3)/2.0) \
        as=((int(((3)-1)/2)==int((3)/2))?((((WP)/(3))<4.95e-08)?((WP)/(3))*3e-08+(((((LP)>9e-08)?9.5e-08:(((LP)<40n)?7.5e-08:75n)))-3e-08)*5e-08:((((LP)>9e-08)?9.5e-08:(((LP)<40n)?7.5e-08:75n)))*((WP)/(3)))+((((WP)/(3))<4.95e-08)?((((((3)==1)?0:(((LP)>9e-08)?1.2e-07:(((LP)<40n)?1e-07:100n))))-2*3e-08)*5e-08)+2*((WP)/(3))*3e-08:((((3)==1)?0:(((LP)>9e-08)?1.2e-07:(((LP)<40n)?1e-07:100n))))*((WP)/(3)))*((3)-1)/2.0:((((WP)/(3))<4.95e-08)?((WP)/(3))*3e-08+(((((LP)>9e-08)?9.5e-08:(((LP)<40n)?7.5e-08:75n)))-3e-08)*5e-08:((((LP)>9e-08)?9.5e-08:(((LP)<40n)?7.5e-08:75n)))*((WP)/(3)))+((((WP)/(3))<4.95e-08)?((WP)/(3))*3e-08+(((((LP)>9e-08)?9.5e-08:(((LP)<40n)?7.5e-08:75n)))-3e-08)*5e-08:((((LP)>9e-08)?9.5e-08:(((LP)<40n)?7.5e-08:75n)))*((WP)/(3)))+((((WP)/(3))<4.95e-08)?((((((3)==1)?0:(((LP)>9e-08)?1.2e-07:(((LP)<40n)?1e-07:100n))))-2*3e-08)*5e-08)+2*((WP)/(3))*3e-08:((((3)==1)?0:(((LP)>9e-08)?1.2e-07:(((LP)<40n)?1e-07:100n))))*((WP)/(3)))*((3)-2)/2.0) \
        pd=((int(((3)-1)/2)==int((3)/2))?((((WP)/(3))<4.95e-08)?2*((((LP)>9e-08)?9.5e-08:(((LP)<40n)?7.5e-08:75n)))+1e-07:2*(((((LP)>9e-08)?9.5e-08:(((LP)<40n)?7.5e-08:75n)))+((WP)/(3))))+((((WP)/(3))<4.95e-08)?2*((((3)==1)?0:(((LP)>9e-08)?1.2e-07:(((LP)<40n)?1e-07:100n))))+1e-07:2*(((((3)==1)?0:(((LP)>9e-08)?1.2e-07:(((LP)<40n)?1e-07:100n))))+((WP)/(3))))*((3)-1)/2.0:((((WP)/(3))<4.95e-08)?2*((((3)==1)?0:(((LP)>9e-08)?1.2e-07:(((LP)<40n)?1e-07:100n))))+1e-07:2*(((((3)==1)?0:(((LP)>9e-08)?1.2e-07:(((LP)<40n)?1e-07:100n))))+((WP)/(3))))*(3)/2.0) \
        ps=((int(((3)-1)/2)==int((3)/2))?((((WP)/(3))<4.95e-08)?2*((((LP)>9e-08)?9.5e-08:(((LP)<40n)?7.5e-08:75n)))+1e-07:2*(((((LP)>9e-08)?9.5e-08:(((LP)<40n)?7.5e-08:75n)))+((WP)/(3))))+((((WP)/(3))<4.95e-08)?2*((((3)==1)?0:(((LP)>9e-08)?1.2e-07:(((LP)<40n)?1e-07:100n))))+1e-07:2*(((((3)==1)?0:(((LP)>9e-08)?1.2e-07:(((LP)<40n)?1e-07:100n))))+((WP)/(3))))*((3)-1)/2.0:((((WP)/(3))<4.95e-08)?2*((((LP)>9e-08)?9.5e-08:(((LP)<40n)?7.5e-08:75n)))+1e-07:2*(((((LP)>9e-08)?9.5e-08:(((LP)<40n)?7.5e-08:75n)))+((WP)/(3))))+((((WP)/(3))<4.95e-08)?2*((((LP)>9e-08)?9.5e-08:(((LP)<40n)?7.5e-08:75n)))+1e-07:2*(((((LP)>9e-08)?9.5e-08:(((LP)<40n)?7.5e-08:75n)))+((WP)/(3))))+((((WP)/(3))<4.95e-08)?2*((((3)==1)?0:(((LP)>9e-08)?1.2e-07:(((LP)<40n)?1e-07:100n))))+1e-07:2*(((((3)==1)?0:(((LP)>9e-08)?1.2e-07:(((LP)<40n)?1e-07:100n))))+((WP)/(3))))*((3)-2)/2.0) \
        sa=(((LP)>9e-08)?9.5e-08:(((LP)<40n)?7.5e-08:75n)) \
        sb=(((LP)>9e-08)?9.5e-08:(((LP)<40n)?7.5e-08:75n)) \
        sd=(((3)==1)?0:(((LP)>9e-08)?1.2e-07:(((LP)<40n)?1e-07:100n))) \
        sca=((1e-06*1e-06)/((WP)/(3)))*(1/(65n)-1/((65n)+((WP)/(3)))) \
        scb=(1/(((WP)/(3))*1e-06))*(1e-06/10*(65n)*exp(-10*(65n)/1e-06)+((1e-06*1e-06)/100)*exp(-10*(65n)/1e-06)-(1e-06/10)*((65n)+((WP)/(3)))*exp(-10*((65n)+((WP)/(3)))/1e-06)-(1e-06*1e-06)/100*exp(-10*((65n)+((WP)/(3)))/1e-06)) \
        scc=(1/(((WP)/(3))*1e-06))*(1e-06/20*(65n)*exp(-20*(65n)/1e-06)+((1e-06*1e-06)/400)*exp(-20*(65n)/1e-06)-(1e-06/20)*((65n)+((WP)/(3)))*exp(-20*((65n)+((WP)/(3)))/1e-06)-(1e-06*1e-06)/400*exp(-20*((65n)+((WP)/(3)))/1e-06)) \
        mis_flag=1 nrd=358.974m nrs=358.974m cctg_flag=1 rdscon_flag=1 \
        rgate_flag=1
    mp0 (net79 A0 VDD VDD) p_p9_hpculvt m=1 mf=1 w=WP l=LP nf=3 \
        ad=((int(((3)-1)/2)==int((3)/2))?((((WP)/(3))<4.95e-08)?((WP)/(3))*3e-08+(((((LP)>9e-08)?9.5e-08:(((LP)<40n)?7.5e-08:75n)))-3e-08)*5e-08:((((LP)>9e-08)?9.5e-08:(((LP)<40n)?7.5e-08:75n)))*((WP)/(3)))+((((WP)/(3))<4.95e-08)?((((((3)==1)?0:(((LP)>9e-08)?1.2e-07:(((LP)<40n)?1e-07:100n))))-2*3e-08)*5e-08)+2*((WP)/(3))*3e-08:((((3)==1)?0:(((LP)>9e-08)?1.2e-07:(((LP)<40n)?1e-07:100n))))*((WP)/(3)))*((3)-1)/2.0:((((WP)/(3))<4.95e-08)?((((((3)==1)?0:(((LP)>9e-08)?1.2e-07:(((LP)<40n)?1e-07:100n))))-2*3e-08)*5e-08)+2*((WP)/(3))*3e-08:((((3)==1)?0:(((LP)>9e-08)?1.2e-07:(((LP)<40n)?1e-07:100n))))*((WP)/(3)))*(3)/2.0) \
        as=((int(((3)-1)/2)==int((3)/2))?((((WP)/(3))<4.95e-08)?((WP)/(3))*3e-08+(((((LP)>9e-08)?9.5e-08:(((LP)<40n)?7.5e-08:75n)))-3e-08)*5e-08:((((LP)>9e-08)?9.5e-08:(((LP)<40n)?7.5e-08:75n)))*((WP)/(3)))+((((WP)/(3))<4.95e-08)?((((((3)==1)?0:(((LP)>9e-08)?1.2e-07:(((LP)<40n)?1e-07:100n))))-2*3e-08)*5e-08)+2*((WP)/(3))*3e-08:((((3)==1)?0:(((LP)>9e-08)?1.2e-07:(((LP)<40n)?1e-07:100n))))*((WP)/(3)))*((3)-1)/2.0:((((WP)/(3))<4.95e-08)?((WP)/(3))*3e-08+(((((LP)>9e-08)?9.5e-08:(((LP)<40n)?7.5e-08:75n)))-3e-08)*5e-08:((((LP)>9e-08)?9.5e-08:(((LP)<40n)?7.5e-08:75n)))*((WP)/(3)))+((((WP)/(3))<4.95e-08)?((WP)/(3))*3e-08+(((((LP)>9e-08)?9.5e-08:(((LP)<40n)?7.5e-08:75n)))-3e-08)*5e-08:((((LP)>9e-08)?9.5e-08:(((LP)<40n)?7.5e-08:75n)))*((WP)/(3)))+((((WP)/(3))<4.95e-08)?((((((3)==1)?0:(((LP)>9e-08)?1.2e-07:(((LP)<40n)?1e-07:100n))))-2*3e-08)*5e-08)+2*((WP)/(3))*3e-08:((((3)==1)?0:(((LP)>9e-08)?1.2e-07:(((LP)<40n)?1e-07:100n))))*((WP)/(3)))*((3)-2)/2.0) \
        pd=((int(((3)-1)/2)==int((3)/2))?((((WP)/(3))<4.95e-08)?2*((((LP)>9e-08)?9.5e-08:(((LP)<40n)?7.5e-08:75n)))+1e-07:2*(((((LP)>9e-08)?9.5e-08:(((LP)<40n)?7.5e-08:75n)))+((WP)/(3))))+((((WP)/(3))<4.95e-08)?2*((((3)==1)?0:(((LP)>9e-08)?1.2e-07:(((LP)<40n)?1e-07:100n))))+1e-07:2*(((((3)==1)?0:(((LP)>9e-08)?1.2e-07:(((LP)<40n)?1e-07:100n))))+((WP)/(3))))*((3)-1)/2.0:((((WP)/(3))<4.95e-08)?2*((((3)==1)?0:(((LP)>9e-08)?1.2e-07:(((LP)<40n)?1e-07:100n))))+1e-07:2*(((((3)==1)?0:(((LP)>9e-08)?1.2e-07:(((LP)<40n)?1e-07:100n))))+((WP)/(3))))*(3)/2.0) \
        ps=((int(((3)-1)/2)==int((3)/2))?((((WP)/(3))<4.95e-08)?2*((((LP)>9e-08)?9.5e-08:(((LP)<40n)?7.5e-08:75n)))+1e-07:2*(((((LP)>9e-08)?9.5e-08:(((LP)<40n)?7.5e-08:75n)))+((WP)/(3))))+((((WP)/(3))<4.95e-08)?2*((((3)==1)?0:(((LP)>9e-08)?1.2e-07:(((LP)<40n)?1e-07:100n))))+1e-07:2*(((((3)==1)?0:(((LP)>9e-08)?1.2e-07:(((LP)<40n)?1e-07:100n))))+((WP)/(3))))*((3)-1)/2.0:((((WP)/(3))<4.95e-08)?2*((((LP)>9e-08)?9.5e-08:(((LP)<40n)?7.5e-08:75n)))+1e-07:2*(((((LP)>9e-08)?9.5e-08:(((LP)<40n)?7.5e-08:75n)))+((WP)/(3))))+((((WP)/(3))<4.95e-08)?2*((((LP)>9e-08)?9.5e-08:(((LP)<40n)?7.5e-08:75n)))+1e-07:2*(((((LP)>9e-08)?9.5e-08:(((LP)<40n)?7.5e-08:75n)))+((WP)/(3))))+((((WP)/(3))<4.95e-08)?2*((((3)==1)?0:(((LP)>9e-08)?1.2e-07:(((LP)<40n)?1e-07:100n))))+1e-07:2*(((((3)==1)?0:(((LP)>9e-08)?1.2e-07:(((LP)<40n)?1e-07:100n))))+((WP)/(3))))*((3)-2)/2.0) \
        sa=(((LP)>9e-08)?9.5e-08:(((LP)<40n)?7.5e-08:75n)) \
        sb=(((LP)>9e-08)?9.5e-08:(((LP)<40n)?7.5e-08:75n)) \
        sd=(((3)==1)?0:(((LP)>9e-08)?1.2e-07:(((LP)<40n)?1e-07:100n))) \
        sca=((1e-06*1e-06)/((WP)/(3)))*(1/(65n)-1/((65n)+((WP)/(3)))) \
        scb=(1/(((WP)/(3))*1e-06))*(1e-06/10*(65n)*exp(-10*(65n)/1e-06)+((1e-06*1e-06)/100)*exp(-10*(65n)/1e-06)-(1e-06/10)*((65n)+((WP)/(3)))*exp(-10*((65n)+((WP)/(3)))/1e-06)-(1e-06*1e-06)/100*exp(-10*((65n)+((WP)/(3)))/1e-06)) \
        scc=(1/(((WP)/(3))*1e-06))*(1e-06/20*(65n)*exp(-20*(65n)/1e-06)+((1e-06*1e-06)/400)*exp(-20*(65n)/1e-06)-(1e-06/20)*((65n)+((WP)/(3)))*exp(-20*((65n)+((WP)/(3)))/1e-06)-(1e-06*1e-06)/400*exp(-20*((65n)+((WP)/(3)))/1e-06)) \
        mis_flag=1 nrd=358.974m nrs=358.974m cctg_flag=1 rdscon_flag=1 \
        rgate_flag=1
    PM1 (Y B0 net79 VDD) p_p9_hpculvt m=1 mf=1 w=WP l=LP nf=3 \
        ad=((int(((3)-1)/2)==int((3)/2))?((((WP)/(3))<4.95e-08)?((WP)/(3))*3e-08+(((((LP)>9e-08)?9.5e-08:(((LP)<40n)?7.5e-08:75n)))-3e-08)*5e-08:((((LP)>9e-08)?9.5e-08:(((LP)<40n)?7.5e-08:75n)))*((WP)/(3)))+((((WP)/(3))<4.95e-08)?((((((3)==1)?0:(((LP)>9e-08)?1.2e-07:(((LP)<40n)?1e-07:100n))))-2*3e-08)*5e-08)+2*((WP)/(3))*3e-08:((((3)==1)?0:(((LP)>9e-08)?1.2e-07:(((LP)<40n)?1e-07:100n))))*((WP)/(3)))*((3)-1)/2.0:((((WP)/(3))<4.95e-08)?((((((3)==1)?0:(((LP)>9e-08)?1.2e-07:(((LP)<40n)?1e-07:100n))))-2*3e-08)*5e-08)+2*((WP)/(3))*3e-08:((((3)==1)?0:(((LP)>9e-08)?1.2e-07:(((LP)<40n)?1e-07:100n))))*((WP)/(3)))*(3)/2.0) \
        as=((int(((3)-1)/2)==int((3)/2))?((((WP)/(3))<4.95e-08)?((WP)/(3))*3e-08+(((((LP)>9e-08)?9.5e-08:(((LP)<40n)?7.5e-08:75n)))-3e-08)*5e-08:((((LP)>9e-08)?9.5e-08:(((LP)<40n)?7.5e-08:75n)))*((WP)/(3)))+((((WP)/(3))<4.95e-08)?((((((3)==1)?0:(((LP)>9e-08)?1.2e-07:(((LP)<40n)?1e-07:100n))))-2*3e-08)*5e-08)+2*((WP)/(3))*3e-08:((((3)==1)?0:(((LP)>9e-08)?1.2e-07:(((LP)<40n)?1e-07:100n))))*((WP)/(3)))*((3)-1)/2.0:((((WP)/(3))<4.95e-08)?((WP)/(3))*3e-08+(((((LP)>9e-08)?9.5e-08:(((LP)<40n)?7.5e-08:75n)))-3e-08)*5e-08:((((LP)>9e-08)?9.5e-08:(((LP)<40n)?7.5e-08:75n)))*((WP)/(3)))+((((WP)/(3))<4.95e-08)?((WP)/(3))*3e-08+(((((LP)>9e-08)?9.5e-08:(((LP)<40n)?7.5e-08:75n)))-3e-08)*5e-08:((((LP)>9e-08)?9.5e-08:(((LP)<40n)?7.5e-08:75n)))*((WP)/(3)))+((((WP)/(3))<4.95e-08)?((((((3)==1)?0:(((LP)>9e-08)?1.2e-07:(((LP)<40n)?1e-07:100n))))-2*3e-08)*5e-08)+2*((WP)/(3))*3e-08:((((3)==1)?0:(((LP)>9e-08)?1.2e-07:(((LP)<40n)?1e-07:100n))))*((WP)/(3)))*((3)-2)/2.0) \
        pd=((int(((3)-1)/2)==int((3)/2))?((((WP)/(3))<4.95e-08)?2*((((LP)>9e-08)?9.5e-08:(((LP)<40n)?7.5e-08:75n)))+1e-07:2*(((((LP)>9e-08)?9.5e-08:(((LP)<40n)?7.5e-08:75n)))+((WP)/(3))))+((((WP)/(3))<4.95e-08)?2*((((3)==1)?0:(((LP)>9e-08)?1.2e-07:(((LP)<40n)?1e-07:100n))))+1e-07:2*(((((3)==1)?0:(((LP)>9e-08)?1.2e-07:(((LP)<40n)?1e-07:100n))))+((WP)/(3))))*((3)-1)/2.0:((((WP)/(3))<4.95e-08)?2*((((3)==1)?0:(((LP)>9e-08)?1.2e-07:(((LP)<40n)?1e-07:100n))))+1e-07:2*(((((3)==1)?0:(((LP)>9e-08)?1.2e-07:(((LP)<40n)?1e-07:100n))))+((WP)/(3))))*(3)/2.0) \
        ps=((int(((3)-1)/2)==int((3)/2))?((((WP)/(3))<4.95e-08)?2*((((LP)>9e-08)?9.5e-08:(((LP)<40n)?7.5e-08:75n)))+1e-07:2*(((((LP)>9e-08)?9.5e-08:(((LP)<40n)?7.5e-08:75n)))+((WP)/(3))))+((((WP)/(3))<4.95e-08)?2*((((3)==1)?0:(((LP)>9e-08)?1.2e-07:(((LP)<40n)?1e-07:100n))))+1e-07:2*(((((3)==1)?0:(((LP)>9e-08)?1.2e-07:(((LP)<40n)?1e-07:100n))))+((WP)/(3))))*((3)-1)/2.0:((((WP)/(3))<4.95e-08)?2*((((LP)>9e-08)?9.5e-08:(((LP)<40n)?7.5e-08:75n)))+1e-07:2*(((((LP)>9e-08)?9.5e-08:(((LP)<40n)?7.5e-08:75n)))+((WP)/(3))))+((((WP)/(3))<4.95e-08)?2*((((LP)>9e-08)?9.5e-08:(((LP)<40n)?7.5e-08:75n)))+1e-07:2*(((((LP)>9e-08)?9.5e-08:(((LP)<40n)?7.5e-08:75n)))+((WP)/(3))))+((((WP)/(3))<4.95e-08)?2*((((3)==1)?0:(((LP)>9e-08)?1.2e-07:(((LP)<40n)?1e-07:100n))))+1e-07:2*(((((3)==1)?0:(((LP)>9e-08)?1.2e-07:(((LP)<40n)?1e-07:100n))))+((WP)/(3))))*((3)-2)/2.0) \
        sa=(((LP)>9e-08)?9.5e-08:(((LP)<40n)?7.5e-08:75n)) \
        sb=(((LP)>9e-08)?9.5e-08:(((LP)<40n)?7.5e-08:75n)) \
        sd=(((3)==1)?0:(((LP)>9e-08)?1.2e-07:(((LP)<40n)?1e-07:100n))) \
        sca=((1e-06*1e-06)/((WP)/(3)))*(1/(65n)-1/((65n)+((WP)/(3)))) \
        scb=(1/(((WP)/(3))*1e-06))*(1e-06/10*(65n)*exp(-10*(65n)/1e-06)+((1e-06*1e-06)/100)*exp(-10*(65n)/1e-06)-(1e-06/10)*((65n)+((WP)/(3)))*exp(-10*((65n)+((WP)/(3)))/1e-06)-(1e-06*1e-06)/100*exp(-10*((65n)+((WP)/(3)))/1e-06)) \
        scc=(1/(((WP)/(3))*1e-06))*(1e-06/20*(65n)*exp(-20*(65n)/1e-06)+((1e-06*1e-06)/400)*exp(-20*(65n)/1e-06)-(1e-06/20)*((65n)+((WP)/(3)))*exp(-20*((65n)+((WP)/(3)))/1e-06)-(1e-06*1e-06)/400*exp(-20*((65n)+((WP)/(3)))/1e-06)) \
        mis_flag=1 nrd=358.974m nrs=358.974m cctg_flag=1 rdscon_flag=1 \
        rgate_flag=1
ends AOI21X1
// End of subcircuit definition.

// Library name: energy28
// Cell name: char_tb
// View name: schematic
I9 (IN net06 net010 0 net7 OUT) AOI21X1
V5 (net010 0) vsource dc=0 type=pulse val0=0 val1=300m period=10u delay=0 \
        rise=100p fall=100p
C0 (OUT 0) capacitor c=20f
V4 (net06 0) vsource dc=300m type=dc
V0 (IN 0) vsource dc=0 type=dc
V1 (net7 0) vsource dc=300m type=dc
simulatorOptions options psfversion="1.4.0" reltol=1e-3 vabstol=1e-6 \
    iabstol=1e-12 temp=27 tnom=27 scalem=1.0 scale=1.0 gmin=1e-12 rforce=1 \
    maxnotes=5 maxwarns=5 digits=5 cols=80 pivrel=1e-3 \
    sensfile="../psf/sens.output" checklimitdest=psf 
tran tran stop=20u write="spectre.ic" writefinal="spectre.fc" \
    annotate=status maxiters=5 
finalTimeOP info what=oppoint where=rawfile
dcOp dc write="spectre.dc" maxiters=150 maxsteps=10000 annotate=status
dcOpInfo info what=oppoint where=rawfile
dc dc dev=V5 param=dc start=0 stop=300m oppoint=rawfile maxiters=150 \
    maxsteps=10000 annotate=status
modelParameter info what=models where=rawfile
element info what=inst where=rawfile
outputParameter info what=output where=rawfile
designParamVals info what=parameters where=rawfile
primitives info what=primitives where=rawfile
subckts info what=subckts where=rawfile
saveOptions options save=all pwr=all

