// Generated for: spectre
// Generated on: Dec 26 17:57:21 2021
// Design library name: subvt
// Design cell name: DUT
// Design view name: schematic
simulator lang=spectre
global 0
parameters LN=80n LP=40n vdd=300m WN=240n WP=1.2u
include "/home/VLSI_ANALOG/UMC40/FDK_LP/umc40lp/../Models/Spectre/l40lp_rf_v152_e.lib.scs" section=tt
include "/home/VLSI_ANALOG/UMC40/FDK_LP/umc40lp/../Models/Spectre/l40lp_mm_v1101_e.lib.scs" section=tt

// Library name: subvt
// Cell name: INVM1
// View name: schematic
subckt INVM1 GND IN OUT VDD
    NM0 (OUT IN GND GND) n_11_lplvt m=1 mf=1 w=WN l=LN nf=1 \
        ad=((int(((1)-1)/2)==int((1)/2))?((((WN)/(1))<7.95e-08)?((WN)/(1))*3e-08+((((((WN)/(1))<7.95e-08)?(((6e-08+3e-08+(((2*(4e-08-0.0)+(LN))<7e-08)?5.5e-08:4e-08))>1.5e-07)?(6e-08+3e-08+(((2*(4e-08-0.0)+(LN))<7e-08)?5.5e-08:4e-08)):1.5e-07):(6e-08+3e-08+(((2*(4e-08-0.0)+(LN))<7e-08)?5.5e-08:4e-08))))-3e-08)*8e-08:(((((WN)/(1))<7.95e-08)?(((6e-08+3e-08+(((2*(4e-08-0.0)+(LN))<7e-08)?5.5e-08:4e-08))>1.5e-07)?(6e-08+3e-08+(((2*(4e-08-0.0)+(LN))<7e-08)?5.5e-08:4e-08)):1.5e-07):(6e-08+3e-08+(((2*(4e-08-0.0)+(LN))<7e-08)?5.5e-08:4e-08))))*((WN)/(1)))+((((WN)/(1))<7.95e-08)?2*((WN)/(1))*3e-08+(((((1)==1)?0:((((WN)/(1))<7.95e-08)?(7e-08+((max(1.4e-07,(6e-08+(2*(((2*(4e-08-0.0)+(LN))<7e-08)?5.5e-08:4e-08))))>1.8e-07)?max(1.4e-07,(6e-08+(2*(((2*(4e-08-0.0)+(LN))<7e-08)?5.5e-08:4e-08)))):1.8e-07)-7e-08):(7e-08+max(1.4e-07,(6e-08+(2*(((2*(4e-08-0.0)+(LN))<7e-08)?5.5e-08:4e-08))))-7e-08))))-2*3e-08)*8e-08:((((1)==1)?0:((((WN)/(1))<7.95e-08)?(7e-08+((max(1.4e-07,(6e-08+(2*(((2*(4e-08-0.0)+(LN))<7e-08)?5.5e-08:4e-08))))>1.8e-07)?max(1.4e-07,(6e-08+(2*(((2*(4e-08-0.0)+(LN))<7e-08)?5.5e-08:4e-08)))):1.8e-07)-7e-08):(7e-08+max(1.4e-07,(6e-08+(2*(((2*(4e-08-0.0)+(LN))<7e-08)?5.5e-08:4e-08))))-7e-08))))*((WN)/(1)))*((1)-1)/2.0:((((WN)/(1))<7.95e-08)?2*((WN)/(1))*3e-08+(((((1)==1)?0:((((WN)/(1))<7.95e-08)?(7e-08+((max(1.4e-07,(6e-08+(2*(((2*(4e-08-0.0)+(LN))<7e-08)?5.5e-08:4e-08))))>1.8e-07)?max(1.4e-07,(6e-08+(2*(((2*(4e-08-0.0)+(LN))<7e-08)?5.5e-08:4e-08)))):1.8e-07)-7e-08):(7e-08+max(1.4e-07,(6e-08+(2*(((2*(4e-08-0.0)+(LN))<7e-08)?5.5e-08:4e-08))))-7e-08))))-2*3e-08)*8e-08:((((1)==1)?0:((((WN)/(1))<7.95e-08)?(7e-08+((max(1.4e-07,(6e-08+(2*(((2*(4e-08-0.0)+(LN))<7e-08)?5.5e-08:4e-08))))>1.8e-07)?max(1.4e-07,(6e-08+(2*(((2*(4e-08-0.0)+(LN))<7e-08)?5.5e-08:4e-08)))):1.8e-07)-7e-08):(7e-08+max(1.4e-07,(6e-08+(2*(((2*(4e-08-0.0)+(LN))<7e-08)?5.5e-08:4e-08))))-7e-08))))*((WN)/(1)))*(1)/2.0) \
        as=((int(((1)-1)/2)==int((1)/2))?((((WN)/(1))<7.95e-08)?((WN)/(1))*3e-08+((((((WN)/(1))<7.95e-08)?(((6e-08+3e-08+(((2*(4e-08-0.0)+(LN))<7e-08)?5.5e-08:4e-08))>1.5e-07)?(6e-08+3e-08+(((2*(4e-08-0.0)+(LN))<7e-08)?5.5e-08:4e-08)):1.5e-07):(6e-08+3e-08+(((2*(4e-08-0.0)+(LN))<7e-08)?5.5e-08:4e-08))))-3e-08)*8e-08:(((((WN)/(1))<7.95e-08)?(((6e-08+3e-08+(((2*(4e-08-0.0)+(LN))<7e-08)?5.5e-08:4e-08))>1.5e-07)?(6e-08+3e-08+(((2*(4e-08-0.0)+(LN))<7e-08)?5.5e-08:4e-08)):1.5e-07):(6e-08+3e-08+(((2*(4e-08-0.0)+(LN))<7e-08)?5.5e-08:4e-08))))*((WN)/(1)))+((((WN)/(1))<7.95e-08)?2*((WN)/(1))*3e-08+(((((1)==1)?0:((((WN)/(1))<7.95e-08)?(7e-08+((max(1.4e-07,(6e-08+(2*(((2*(4e-08-0.0)+(LN))<7e-08)?5.5e-08:4e-08))))>1.8e-07)?max(1.4e-07,(6e-08+(2*(((2*(4e-08-0.0)+(LN))<7e-08)?5.5e-08:4e-08)))):1.8e-07)-7e-08):(7e-08+max(1.4e-07,(6e-08+(2*(((2*(4e-08-0.0)+(LN))<7e-08)?5.5e-08:4e-08))))-7e-08))))-2*3e-08)*8e-08:((((1)==1)?0:((((WN)/(1))<7.95e-08)?(7e-08+((max(1.4e-07,(6e-08+(2*(((2*(4e-08-0.0)+(LN))<7e-08)?5.5e-08:4e-08))))>1.8e-07)?max(1.4e-07,(6e-08+(2*(((2*(4e-08-0.0)+(LN))<7e-08)?5.5e-08:4e-08)))):1.8e-07)-7e-08):(7e-08+max(1.4e-07,(6e-08+(2*(((2*(4e-08-0.0)+(LN))<7e-08)?5.5e-08:4e-08))))-7e-08))))*((WN)/(1)))*((1)-1)/2.0:((((WN)/(1))<7.95e-08)?((WN)/(1))*3e-08+((((((WN)/(1))<7.95e-08)?(((6e-08+3e-08+(((2*(4e-08-0.0)+(LN))<7e-08)?5.5e-08:4e-08))>1.5e-07)?(6e-08+3e-08+(((2*(4e-08-0.0)+(LN))<7e-08)?5.5e-08:4e-08)):1.5e-07):(6e-08+3e-08+(((2*(4e-08-0.0)+(LN))<7e-08)?5.5e-08:4e-08))))-3e-08)*8e-08:(((((WN)/(1))<7.95e-08)?(((6e-08+3e-08+(((2*(4e-08-0.0)+(LN))<7e-08)?5.5e-08:4e-08))>1.5e-07)?(6e-08+3e-08+(((2*(4e-08-0.0)+(LN))<7e-08)?5.5e-08:4e-08)):1.5e-07):(6e-08+3e-08+(((2*(4e-08-0.0)+(LN))<7e-08)?5.5e-08:4e-08))))*((WN)/(1)))+((((WN)/(1))<7.95e-08)?((WN)/(1))*3e-08+((((((WN)/(1))<7.95e-08)?(((6e-08+3e-08+(((2*(4e-08-0.0)+(LN))<7e-08)?5.5e-08:4e-08))>1.5e-07)?(6e-08+3e-08+(((2*(4e-08-0.0)+(LN))<7e-08)?5.5e-08:4e-08)):1.5e-07):(6e-08+3e-08+(((2*(4e-08-0.0)+(LN))<7e-08)?5.5e-08:4e-08))))-3e-08)*8e-08:(((((WN)/(1))<7.95e-08)?(((6e-08+3e-08+(((2*(4e-08-0.0)+(LN))<7e-08)?5.5e-08:4e-08))>1.5e-07)?(6e-08+3e-08+(((2*(4e-08-0.0)+(LN))<7e-08)?5.5e-08:4e-08)):1.5e-07):(6e-08+3e-08+(((2*(4e-08-0.0)+(LN))<7e-08)?5.5e-08:4e-08))))*((WN)/(1)))+((((WN)/(1))<7.95e-08)?2*((WN)/(1))*3e-08+(((((1)==1)?0:((((WN)/(1))<7.95e-08)?(7e-08+((max(1.4e-07,(6e-08+(2*(((2*(4e-08-0.0)+(LN))<7e-08)?5.5e-08:4e-08))))>1.8e-07)?max(1.4e-07,(6e-08+(2*(((2*(4e-08-0.0)+(LN))<7e-08)?5.5e-08:4e-08)))):1.8e-07)-7e-08):(7e-08+max(1.4e-07,(6e-08+(2*(((2*(4e-08-0.0)+(LN))<7e-08)?5.5e-08:4e-08))))-7e-08))))-2*3e-08)*8e-08:((((1)==1)?0:((((WN)/(1))<7.95e-08)?(7e-08+((max(1.4e-07,(6e-08+(2*(((2*(4e-08-0.0)+(LN))<7e-08)?5.5e-08:4e-08))))>1.8e-07)?max(1.4e-07,(6e-08+(2*(((2*(4e-08-0.0)+(LN))<7e-08)?5.5e-08:4e-08)))):1.8e-07)-7e-08):(7e-08+max(1.4e-07,(6e-08+(2*(((2*(4e-08-0.0)+(LN))<7e-08)?5.5e-08:4e-08))))-7e-08))))*((WN)/(1)))*((1)-2)/2.0) \
        pd=((int(((1)-1)/2)==int((1)/2))?((((WN)/(1))<7.95e-08)?2*(((((WN)/(1))<7.95e-08)?(((6e-08+3e-08+(((2*(4e-08-0.0)+(LN))<7e-08)?5.5e-08:4e-08))>1.5e-07)?(6e-08+3e-08+(((2*(4e-08-0.0)+(LN))<7e-08)?5.5e-08:4e-08)):1.5e-07):(6e-08+3e-08+(((2*(4e-08-0.0)+(LN))<7e-08)?5.5e-08:4e-08))))+1.6e-07:2*((((((WN)/(1))<7.95e-08)?(((6e-08+3e-08+(((2*(4e-08-0.0)+(LN))<7e-08)?5.5e-08:4e-08))>1.5e-07)?(6e-08+3e-08+(((2*(4e-08-0.0)+(LN))<7e-08)?5.5e-08:4e-08)):1.5e-07):(6e-08+3e-08+(((2*(4e-08-0.0)+(LN))<7e-08)?5.5e-08:4e-08))))+((WN)/(1))))+((((WN)/(1))<7.95e-08)?2*((((1)==1)?0:((((WN)/(1))<7.95e-08)?(7e-08+((max(1.4e-07,(6e-08+(2*(((2*(4e-08-0.0)+(LN))<7e-08)?5.5e-08:4e-08))))>1.8e-07)?max(1.4e-07,(6e-08+(2*(((2*(4e-08-0.0)+(LN))<7e-08)?5.5e-08:4e-08)))):1.8e-07)-7e-08):(7e-08+max(1.4e-07,(6e-08+(2*(((2*(4e-08-0.0)+(LN))<7e-08)?5.5e-08:4e-08))))-7e-08))))+1.6e-07:2*(((((1)==1)?0:((((WN)/(1))<7.95e-08)?(7e-08+((max(1.4e-07,(6e-08+(2*(((2*(4e-08-0.0)+(LN))<7e-08)?5.5e-08:4e-08))))>1.8e-07)?max(1.4e-07,(6e-08+(2*(((2*(4e-08-0.0)+(LN))<7e-08)?5.5e-08:4e-08)))):1.8e-07)-7e-08):(7e-08+max(1.4e-07,(6e-08+(2*(((2*(4e-08-0.0)+(LN))<7e-08)?5.5e-08:4e-08))))-7e-08))))+((WN)/(1))))*((1)-1)/2.0:((((WN)/(1))<7.95e-08)?2*((((1)==1)?0:((((WN)/(1))<7.95e-08)?(7e-08+((max(1.4e-07,(6e-08+(2*(((2*(4e-08-0.0)+(LN))<7e-08)?5.5e-08:4e-08))))>1.8e-07)?max(1.4e-07,(6e-08+(2*(((2*(4e-08-0.0)+(LN))<7e-08)?5.5e-08:4e-08)))):1.8e-07)-7e-08):(7e-08+max(1.4e-07,(6e-08+(2*(((2*(4e-08-0.0)+(LN))<7e-08)?5.5e-08:4e-08))))-7e-08))))+1.6e-07:2*(((((1)==1)?0:((((WN)/(1))<7.95e-08)?(7e-08+((max(1.4e-07,(6e-08+(2*(((2*(4e-08-0.0)+(LN))<7e-08)?5.5e-08:4e-08))))>1.8e-07)?max(1.4e-07,(6e-08+(2*(((2*(4e-08-0.0)+(LN))<7e-08)?5.5e-08:4e-08)))):1.8e-07)-7e-08):(7e-08+max(1.4e-07,(6e-08+(2*(((2*(4e-08-0.0)+(LN))<7e-08)?5.5e-08:4e-08))))-7e-08))))+((WN)/(1))))*(1)/2.0) \
        ps=((int(((1)-1)/2)==int((1)/2))?((((WN)/(1))<7.95e-08)?2*(((((WN)/(1))<7.95e-08)?(((6e-08+3e-08+(((2*(4e-08-0.0)+(LN))<7e-08)?5.5e-08:4e-08))>1.5e-07)?(6e-08+3e-08+(((2*(4e-08-0.0)+(LN))<7e-08)?5.5e-08:4e-08)):1.5e-07):(6e-08+3e-08+(((2*(4e-08-0.0)+(LN))<7e-08)?5.5e-08:4e-08))))+1.6e-07:2*((((((WN)/(1))<7.95e-08)?(((6e-08+3e-08+(((2*(4e-08-0.0)+(LN))<7e-08)?5.5e-08:4e-08))>1.5e-07)?(6e-08+3e-08+(((2*(4e-08-0.0)+(LN))<7e-08)?5.5e-08:4e-08)):1.5e-07):(6e-08+3e-08+(((2*(4e-08-0.0)+(LN))<7e-08)?5.5e-08:4e-08))))+((WN)/(1))))+((((WN)/(1))<7.95e-08)?2*((((1)==1)?0:((((WN)/(1))<7.95e-08)?(7e-08+((max(1.4e-07,(6e-08+(2*(((2*(4e-08-0.0)+(LN))<7e-08)?5.5e-08:4e-08))))>1.8e-07)?max(1.4e-07,(6e-08+(2*(((2*(4e-08-0.0)+(LN))<7e-08)?5.5e-08:4e-08)))):1.8e-07)-7e-08):(7e-08+max(1.4e-07,(6e-08+(2*(((2*(4e-08-0.0)+(LN))<7e-08)?5.5e-08:4e-08))))-7e-08))))+1.6e-07:2*(((((1)==1)?0:((((WN)/(1))<7.95e-08)?(7e-08+((max(1.4e-07,(6e-08+(2*(((2*(4e-08-0.0)+(LN))<7e-08)?5.5e-08:4e-08))))>1.8e-07)?max(1.4e-07,(6e-08+(2*(((2*(4e-08-0.0)+(LN))<7e-08)?5.5e-08:4e-08)))):1.8e-07)-7e-08):(7e-08+max(1.4e-07,(6e-08+(2*(((2*(4e-08-0.0)+(LN))<7e-08)?5.5e-08:4e-08))))-7e-08))))+((WN)/(1))))*((1)-1)/2.0:((((WN)/(1))<7.95e-08)?2*(((((WN)/(1))<7.95e-08)?(((6e-08+3e-08+(((2*(4e-08-0.0)+(LN))<7e-08)?5.5e-08:4e-08))>1.5e-07)?(6e-08+3e-08+(((2*(4e-08-0.0)+(LN))<7e-08)?5.5e-08:4e-08)):1.5e-07):(6e-08+3e-08+(((2*(4e-08-0.0)+(LN))<7e-08)?5.5e-08:4e-08))))+1.6e-07:2*((((((WN)/(1))<7.95e-08)?(((6e-08+3e-08+(((2*(4e-08-0.0)+(LN))<7e-08)?5.5e-08:4e-08))>1.5e-07)?(6e-08+3e-08+(((2*(4e-08-0.0)+(LN))<7e-08)?5.5e-08:4e-08)):1.5e-07):(6e-08+3e-08+(((2*(4e-08-0.0)+(LN))<7e-08)?5.5e-08:4e-08))))+((WN)/(1))))+((((WN)/(1))<7.95e-08)?2*(((((WN)/(1))<7.95e-08)?(((6e-08+3e-08+(((2*(4e-08-0.0)+(LN))<7e-08)?5.5e-08:4e-08))>1.5e-07)?(6e-08+3e-08+(((2*(4e-08-0.0)+(LN))<7e-08)?5.5e-08:4e-08)):1.5e-07):(6e-08+3e-08+(((2*(4e-08-0.0)+(LN))<7e-08)?5.5e-08:4e-08))))+1.6e-07:2*((((((WN)/(1))<7.95e-08)?(((6e-08+3e-08+(((2*(4e-08-0.0)+(LN))<7e-08)?5.5e-08:4e-08))>1.5e-07)?(6e-08+3e-08+(((2*(4e-08-0.0)+(LN))<7e-08)?5.5e-08:4e-08)):1.5e-07):(6e-08+3e-08+(((2*(4e-08-0.0)+(LN))<7e-08)?5.5e-08:4e-08))))+((WN)/(1))))+((((WN)/(1))<7.95e-08)?2*((((1)==1)?0:((((WN)/(1))<7.95e-08)?(7e-08+((max(1.4e-07,(6e-08+(2*(((2*(4e-08-0.0)+(LN))<7e-08)?5.5e-08:4e-08))))>1.8e-07)?max(1.4e-07,(6e-08+(2*(((2*(4e-08-0.0)+(LN))<7e-08)?5.5e-08:4e-08)))):1.8e-07)-7e-08):(7e-08+max(1.4e-07,(6e-08+(2*(((2*(4e-08-0.0)+(LN))<7e-08)?5.5e-08:4e-08))))-7e-08))))+1.6e-07:2*(((((1)==1)?0:((((WN)/(1))<7.95e-08)?(7e-08+((max(1.4e-07,(6e-08+(2*(((2*(4e-08-0.0)+(LN))<7e-08)?5.5e-08:4e-08))))>1.8e-07)?max(1.4e-07,(6e-08+(2*(((2*(4e-08-0.0)+(LN))<7e-08)?5.5e-08:4e-08)))):1.8e-07)-7e-08):(7e-08+max(1.4e-07,(6e-08+(2*(((2*(4e-08-0.0)+(LN))<7e-08)?5.5e-08:4e-08))))-7e-08))))+((WN)/(1))))*((1)-2)/2.0) \
        sa=((((WN)/(1))<7.95e-08)?(((6e-08+3e-08+(((2*(4e-08-0.0)+(LN))<7e-08)?5.5e-08:4e-08))>1.5e-07)?(6e-08+3e-08+(((2*(4e-08-0.0)+(LN))<7e-08)?5.5e-08:4e-08)):1.5e-07):(6e-08+3e-08+(((2*(4e-08-0.0)+(LN))<7e-08)?5.5e-08:4e-08))) \
        sb=((((WN)/(1))<7.95e-08)?(((6e-08+3e-08+(((2*(4e-08-0.0)+(LN))<7e-08)?5.5e-08:4e-08))>1.5e-07)?(6e-08+3e-08+(((2*(4e-08-0.0)+(LN))<7e-08)?5.5e-08:4e-08)):1.5e-07):(6e-08+3e-08+(((2*(4e-08-0.0)+(LN))<7e-08)?5.5e-08:4e-08))) \
        sd=(((1)==1)?0:((((WN)/(1))<7.95e-08)?(7e-08+((max(1.4e-07,(6e-08+(2*(((2*(4e-08-0.0)+(LN))<7e-08)?5.5e-08:4e-08))))>1.8e-07)?max(1.4e-07,(6e-08+(2*(((2*(4e-08-0.0)+(LN))<7e-08)?5.5e-08:4e-08)))):1.8e-07)-7e-08):(7e-08+max(1.4e-07,(6e-08+(2*(((2*(4e-08-0.0)+(LN))<7e-08)?5.5e-08:4e-08))))-7e-08))) \
        sca=((2e-06*2e-06)/((WN)/(1)))*(1/(80n)-1/((80n)+((WN)/(1)))) \
        scb=(1/(((WN)/(1))*2e-06))*(2e-06/10*(80n)*exp(-10*(80n)/2e-06)+((2e-06*2e-06)/100)*exp(-10*(80n)/2e-06)-(2e-06/10)*((80n)+((WN)/(1)))*exp(-10*((80n)+((WN)/(1)))/2e-06)-(2e-06*2e-06)/100*exp(-10*((80n)+((WN)/(1)))/2e-06)) \
        scc=(1/(((WN)/(1))*2e-06))*(2e-06/20*(80n)*exp(-20*(80n)/2e-06)+((2e-06*2e-06)/400)*exp(-20*(80n)/2e-06)-(2e-06/20)*((80n)+((WN)/(1)))*exp(-20*((80n)+((WN)/(1)))/2e-06)-(2e-06*2e-06)/400*exp(-20*((80n)+((WN)/(1)))/2e-06)) \
        mis_flag=1 rdscon_flag=1 cctg_flag=1
    PM0 (OUT IN VDD VDD) p_11_lplvt m=1 mf=1 w=WP l=LP nf=1 \
        ad=((int(((1)-1)/2)==int((1)/2))?((((WP)/(1))<7.95e-08)?((WP)/(1))*3e-08+((((((WP)/(1))<7.95e-08)?(((6e-08+3e-08+(((2*(4e-08-0.0)+(LP))<7e-08)?5.5e-08:4e-08))>1.5e-07)?(6e-08+3e-08+(((2*(4e-08-0.0)+(LP))<7e-08)?5.5e-08:4e-08)):1.5e-07):(6e-08+3e-08+(((2*(4e-08-0.0)+(LP))<7e-08)?5.5e-08:4e-08))))-3e-08)*8e-08:(((((WP)/(1))<7.95e-08)?(((6e-08+3e-08+(((2*(4e-08-0.0)+(LP))<7e-08)?5.5e-08:4e-08))>1.5e-07)?(6e-08+3e-08+(((2*(4e-08-0.0)+(LP))<7e-08)?5.5e-08:4e-08)):1.5e-07):(6e-08+3e-08+(((2*(4e-08-0.0)+(LP))<7e-08)?5.5e-08:4e-08))))*((WP)/(1)))+((((WP)/(1))<7.95e-08)?2*((WP)/(1))*3e-08+(((((1)==1)?0:((((WP)/(1))<7.95e-08)?(7e-08+((max(1.4e-07,(6e-08+(2*(((2*(4e-08-0.0)+(LP))<7e-08)?5.5e-08:4e-08))))>1.8e-07)?max(1.4e-07,(6e-08+(2*(((2*(4e-08-0.0)+(LP))<7e-08)?5.5e-08:4e-08)))):1.8e-07)-7e-08):(7e-08+max(1.4e-07,(6e-08+(2*(((2*(4e-08-0.0)+(LP))<7e-08)?5.5e-08:4e-08))))-7e-08))))-2*3e-08)*8e-08:((((1)==1)?0:((((WP)/(1))<7.95e-08)?(7e-08+((max(1.4e-07,(6e-08+(2*(((2*(4e-08-0.0)+(LP))<7e-08)?5.5e-08:4e-08))))>1.8e-07)?max(1.4e-07,(6e-08+(2*(((2*(4e-08-0.0)+(LP))<7e-08)?5.5e-08:4e-08)))):1.8e-07)-7e-08):(7e-08+max(1.4e-07,(6e-08+(2*(((2*(4e-08-0.0)+(LP))<7e-08)?5.5e-08:4e-08))))-7e-08))))*((WP)/(1)))*((1)-1)/2.0:((((WP)/(1))<7.95e-08)?2*((WP)/(1))*3e-08+(((((1)==1)?0:((((WP)/(1))<7.95e-08)?(7e-08+((max(1.4e-07,(6e-08+(2*(((2*(4e-08-0.0)+(LP))<7e-08)?5.5e-08:4e-08))))>1.8e-07)?max(1.4e-07,(6e-08+(2*(((2*(4e-08-0.0)+(LP))<7e-08)?5.5e-08:4e-08)))):1.8e-07)-7e-08):(7e-08+max(1.4e-07,(6e-08+(2*(((2*(4e-08-0.0)+(LP))<7e-08)?5.5e-08:4e-08))))-7e-08))))-2*3e-08)*8e-08:((((1)==1)?0:((((WP)/(1))<7.95e-08)?(7e-08+((max(1.4e-07,(6e-08+(2*(((2*(4e-08-0.0)+(LP))<7e-08)?5.5e-08:4e-08))))>1.8e-07)?max(1.4e-07,(6e-08+(2*(((2*(4e-08-0.0)+(LP))<7e-08)?5.5e-08:4e-08)))):1.8e-07)-7e-08):(7e-08+max(1.4e-07,(6e-08+(2*(((2*(4e-08-0.0)+(LP))<7e-08)?5.5e-08:4e-08))))-7e-08))))*((WP)/(1)))*(1)/2.0) \
        as=((int(((1)-1)/2)==int((1)/2))?((((WP)/(1))<7.95e-08)?((WP)/(1))*3e-08+((((((WP)/(1))<7.95e-08)?(((6e-08+3e-08+(((2*(4e-08-0.0)+(LP))<7e-08)?5.5e-08:4e-08))>1.5e-07)?(6e-08+3e-08+(((2*(4e-08-0.0)+(LP))<7e-08)?5.5e-08:4e-08)):1.5e-07):(6e-08+3e-08+(((2*(4e-08-0.0)+(LP))<7e-08)?5.5e-08:4e-08))))-3e-08)*8e-08:(((((WP)/(1))<7.95e-08)?(((6e-08+3e-08+(((2*(4e-08-0.0)+(LP))<7e-08)?5.5e-08:4e-08))>1.5e-07)?(6e-08+3e-08+(((2*(4e-08-0.0)+(LP))<7e-08)?5.5e-08:4e-08)):1.5e-07):(6e-08+3e-08+(((2*(4e-08-0.0)+(LP))<7e-08)?5.5e-08:4e-08))))*((WP)/(1)))+((((WP)/(1))<7.95e-08)?2*((WP)/(1))*3e-08+(((((1)==1)?0:((((WP)/(1))<7.95e-08)?(7e-08+((max(1.4e-07,(6e-08+(2*(((2*(4e-08-0.0)+(LP))<7e-08)?5.5e-08:4e-08))))>1.8e-07)?max(1.4e-07,(6e-08+(2*(((2*(4e-08-0.0)+(LP))<7e-08)?5.5e-08:4e-08)))):1.8e-07)-7e-08):(7e-08+max(1.4e-07,(6e-08+(2*(((2*(4e-08-0.0)+(LP))<7e-08)?5.5e-08:4e-08))))-7e-08))))-2*3e-08)*8e-08:((((1)==1)?0:((((WP)/(1))<7.95e-08)?(7e-08+((max(1.4e-07,(6e-08+(2*(((2*(4e-08-0.0)+(LP))<7e-08)?5.5e-08:4e-08))))>1.8e-07)?max(1.4e-07,(6e-08+(2*(((2*(4e-08-0.0)+(LP))<7e-08)?5.5e-08:4e-08)))):1.8e-07)-7e-08):(7e-08+max(1.4e-07,(6e-08+(2*(((2*(4e-08-0.0)+(LP))<7e-08)?5.5e-08:4e-08))))-7e-08))))*((WP)/(1)))*((1)-1)/2.0:((((WP)/(1))<7.95e-08)?((WP)/(1))*3e-08+((((((WP)/(1))<7.95e-08)?(((6e-08+3e-08+(((2*(4e-08-0.0)+(LP))<7e-08)?5.5e-08:4e-08))>1.5e-07)?(6e-08+3e-08+(((2*(4e-08-0.0)+(LP))<7e-08)?5.5e-08:4e-08)):1.5e-07):(6e-08+3e-08+(((2*(4e-08-0.0)+(LP))<7e-08)?5.5e-08:4e-08))))-3e-08)*8e-08:(((((WP)/(1))<7.95e-08)?(((6e-08+3e-08+(((2*(4e-08-0.0)+(LP))<7e-08)?5.5e-08:4e-08))>1.5e-07)?(6e-08+3e-08+(((2*(4e-08-0.0)+(LP))<7e-08)?5.5e-08:4e-08)):1.5e-07):(6e-08+3e-08+(((2*(4e-08-0.0)+(LP))<7e-08)?5.5e-08:4e-08))))*((WP)/(1)))+((((WP)/(1))<7.95e-08)?((WP)/(1))*3e-08+((((((WP)/(1))<7.95e-08)?(((6e-08+3e-08+(((2*(4e-08-0.0)+(LP))<7e-08)?5.5e-08:4e-08))>1.5e-07)?(6e-08+3e-08+(((2*(4e-08-0.0)+(LP))<7e-08)?5.5e-08:4e-08)):1.5e-07):(6e-08+3e-08+(((2*(4e-08-0.0)+(LP))<7e-08)?5.5e-08:4e-08))))-3e-08)*8e-08:(((((WP)/(1))<7.95e-08)?(((6e-08+3e-08+(((2*(4e-08-0.0)+(LP))<7e-08)?5.5e-08:4e-08))>1.5e-07)?(6e-08+3e-08+(((2*(4e-08-0.0)+(LP))<7e-08)?5.5e-08:4e-08)):1.5e-07):(6e-08+3e-08+(((2*(4e-08-0.0)+(LP))<7e-08)?5.5e-08:4e-08))))*((WP)/(1)))+((((WP)/(1))<7.95e-08)?2*((WP)/(1))*3e-08+(((((1)==1)?0:((((WP)/(1))<7.95e-08)?(7e-08+((max(1.4e-07,(6e-08+(2*(((2*(4e-08-0.0)+(LP))<7e-08)?5.5e-08:4e-08))))>1.8e-07)?max(1.4e-07,(6e-08+(2*(((2*(4e-08-0.0)+(LP))<7e-08)?5.5e-08:4e-08)))):1.8e-07)-7e-08):(7e-08+max(1.4e-07,(6e-08+(2*(((2*(4e-08-0.0)+(LP))<7e-08)?5.5e-08:4e-08))))-7e-08))))-2*3e-08)*8e-08:((((1)==1)?0:((((WP)/(1))<7.95e-08)?(7e-08+((max(1.4e-07,(6e-08+(2*(((2*(4e-08-0.0)+(LP))<7e-08)?5.5e-08:4e-08))))>1.8e-07)?max(1.4e-07,(6e-08+(2*(((2*(4e-08-0.0)+(LP))<7e-08)?5.5e-08:4e-08)))):1.8e-07)-7e-08):(7e-08+max(1.4e-07,(6e-08+(2*(((2*(4e-08-0.0)+(LP))<7e-08)?5.5e-08:4e-08))))-7e-08))))*((WP)/(1)))*((1)-2)/2.0) \
        pd=((int(((1)-1)/2)==int((1)/2))?((((WP)/(1))<7.95e-08)?2*(((((WP)/(1))<7.95e-08)?(((6e-08+3e-08+(((2*(4e-08-0.0)+(LP))<7e-08)?5.5e-08:4e-08))>1.5e-07)?(6e-08+3e-08+(((2*(4e-08-0.0)+(LP))<7e-08)?5.5e-08:4e-08)):1.5e-07):(6e-08+3e-08+(((2*(4e-08-0.0)+(LP))<7e-08)?5.5e-08:4e-08))))+1.6e-07:2*((((((WP)/(1))<7.95e-08)?(((6e-08+3e-08+(((2*(4e-08-0.0)+(LP))<7e-08)?5.5e-08:4e-08))>1.5e-07)?(6e-08+3e-08+(((2*(4e-08-0.0)+(LP))<7e-08)?5.5e-08:4e-08)):1.5e-07):(6e-08+3e-08+(((2*(4e-08-0.0)+(LP))<7e-08)?5.5e-08:4e-08))))+((WP)/(1))))+((((WP)/(1))<7.95e-08)?2*((((1)==1)?0:((((WP)/(1))<7.95e-08)?(7e-08+((max(1.4e-07,(6e-08+(2*(((2*(4e-08-0.0)+(LP))<7e-08)?5.5e-08:4e-08))))>1.8e-07)?max(1.4e-07,(6e-08+(2*(((2*(4e-08-0.0)+(LP))<7e-08)?5.5e-08:4e-08)))):1.8e-07)-7e-08):(7e-08+max(1.4e-07,(6e-08+(2*(((2*(4e-08-0.0)+(LP))<7e-08)?5.5e-08:4e-08))))-7e-08))))+1.6e-07:2*(((((1)==1)?0:((((WP)/(1))<7.95e-08)?(7e-08+((max(1.4e-07,(6e-08+(2*(((2*(4e-08-0.0)+(LP))<7e-08)?5.5e-08:4e-08))))>1.8e-07)?max(1.4e-07,(6e-08+(2*(((2*(4e-08-0.0)+(LP))<7e-08)?5.5e-08:4e-08)))):1.8e-07)-7e-08):(7e-08+max(1.4e-07,(6e-08+(2*(((2*(4e-08-0.0)+(LP))<7e-08)?5.5e-08:4e-08))))-7e-08))))+((WP)/(1))))*((1)-1)/2.0:((((WP)/(1))<7.95e-08)?2*((((1)==1)?0:((((WP)/(1))<7.95e-08)?(7e-08+((max(1.4e-07,(6e-08+(2*(((2*(4e-08-0.0)+(LP))<7e-08)?5.5e-08:4e-08))))>1.8e-07)?max(1.4e-07,(6e-08+(2*(((2*(4e-08-0.0)+(LP))<7e-08)?5.5e-08:4e-08)))):1.8e-07)-7e-08):(7e-08+max(1.4e-07,(6e-08+(2*(((2*(4e-08-0.0)+(LP))<7e-08)?5.5e-08:4e-08))))-7e-08))))+1.6e-07:2*(((((1)==1)?0:((((WP)/(1))<7.95e-08)?(7e-08+((max(1.4e-07,(6e-08+(2*(((2*(4e-08-0.0)+(LP))<7e-08)?5.5e-08:4e-08))))>1.8e-07)?max(1.4e-07,(6e-08+(2*(((2*(4e-08-0.0)+(LP))<7e-08)?5.5e-08:4e-08)))):1.8e-07)-7e-08):(7e-08+max(1.4e-07,(6e-08+(2*(((2*(4e-08-0.0)+(LP))<7e-08)?5.5e-08:4e-08))))-7e-08))))+((WP)/(1))))*(1)/2.0) \
        ps=((int(((1)-1)/2)==int((1)/2))?((((WP)/(1))<7.95e-08)?2*(((((WP)/(1))<7.95e-08)?(((6e-08+3e-08+(((2*(4e-08-0.0)+(LP))<7e-08)?5.5e-08:4e-08))>1.5e-07)?(6e-08+3e-08+(((2*(4e-08-0.0)+(LP))<7e-08)?5.5e-08:4e-08)):1.5e-07):(6e-08+3e-08+(((2*(4e-08-0.0)+(LP))<7e-08)?5.5e-08:4e-08))))+1.6e-07:2*((((((WP)/(1))<7.95e-08)?(((6e-08+3e-08+(((2*(4e-08-0.0)+(LP))<7e-08)?5.5e-08:4e-08))>1.5e-07)?(6e-08+3e-08+(((2*(4e-08-0.0)+(LP))<7e-08)?5.5e-08:4e-08)):1.5e-07):(6e-08+3e-08+(((2*(4e-08-0.0)+(LP))<7e-08)?5.5e-08:4e-08))))+((WP)/(1))))+((((WP)/(1))<7.95e-08)?2*((((1)==1)?0:((((WP)/(1))<7.95e-08)?(7e-08+((max(1.4e-07,(6e-08+(2*(((2*(4e-08-0.0)+(LP))<7e-08)?5.5e-08:4e-08))))>1.8e-07)?max(1.4e-07,(6e-08+(2*(((2*(4e-08-0.0)+(LP))<7e-08)?5.5e-08:4e-08)))):1.8e-07)-7e-08):(7e-08+max(1.4e-07,(6e-08+(2*(((2*(4e-08-0.0)+(LP))<7e-08)?5.5e-08:4e-08))))-7e-08))))+1.6e-07:2*(((((1)==1)?0:((((WP)/(1))<7.95e-08)?(7e-08+((max(1.4e-07,(6e-08+(2*(((2*(4e-08-0.0)+(LP))<7e-08)?5.5e-08:4e-08))))>1.8e-07)?max(1.4e-07,(6e-08+(2*(((2*(4e-08-0.0)+(LP))<7e-08)?5.5e-08:4e-08)))):1.8e-07)-7e-08):(7e-08+max(1.4e-07,(6e-08+(2*(((2*(4e-08-0.0)+(LP))<7e-08)?5.5e-08:4e-08))))-7e-08))))+((WP)/(1))))*((1)-1)/2.0:((((WP)/(1))<7.95e-08)?2*(((((WP)/(1))<7.95e-08)?(((6e-08+3e-08+(((2*(4e-08-0.0)+(LP))<7e-08)?5.5e-08:4e-08))>1.5e-07)?(6e-08+3e-08+(((2*(4e-08-0.0)+(LP))<7e-08)?5.5e-08:4e-08)):1.5e-07):(6e-08+3e-08+(((2*(4e-08-0.0)+(LP))<7e-08)?5.5e-08:4e-08))))+1.6e-07:2*((((((WP)/(1))<7.95e-08)?(((6e-08+3e-08+(((2*(4e-08-0.0)+(LP))<7e-08)?5.5e-08:4e-08))>1.5e-07)?(6e-08+3e-08+(((2*(4e-08-0.0)+(LP))<7e-08)?5.5e-08:4e-08)):1.5e-07):(6e-08+3e-08+(((2*(4e-08-0.0)+(LP))<7e-08)?5.5e-08:4e-08))))+((WP)/(1))))+((((WP)/(1))<7.95e-08)?2*(((((WP)/(1))<7.95e-08)?(((6e-08+3e-08+(((2*(4e-08-0.0)+(LP))<7e-08)?5.5e-08:4e-08))>1.5e-07)?(6e-08+3e-08+(((2*(4e-08-0.0)+(LP))<7e-08)?5.5e-08:4e-08)):1.5e-07):(6e-08+3e-08+(((2*(4e-08-0.0)+(LP))<7e-08)?5.5e-08:4e-08))))+1.6e-07:2*((((((WP)/(1))<7.95e-08)?(((6e-08+3e-08+(((2*(4e-08-0.0)+(LP))<7e-08)?5.5e-08:4e-08))>1.5e-07)?(6e-08+3e-08+(((2*(4e-08-0.0)+(LP))<7e-08)?5.5e-08:4e-08)):1.5e-07):(6e-08+3e-08+(((2*(4e-08-0.0)+(LP))<7e-08)?5.5e-08:4e-08))))+((WP)/(1))))+((((WP)/(1))<7.95e-08)?2*((((1)==1)?0:((((WP)/(1))<7.95e-08)?(7e-08+((max(1.4e-07,(6e-08+(2*(((2*(4e-08-0.0)+(LP))<7e-08)?5.5e-08:4e-08))))>1.8e-07)?max(1.4e-07,(6e-08+(2*(((2*(4e-08-0.0)+(LP))<7e-08)?5.5e-08:4e-08)))):1.8e-07)-7e-08):(7e-08+max(1.4e-07,(6e-08+(2*(((2*(4e-08-0.0)+(LP))<7e-08)?5.5e-08:4e-08))))-7e-08))))+1.6e-07:2*(((((1)==1)?0:((((WP)/(1))<7.95e-08)?(7e-08+((max(1.4e-07,(6e-08+(2*(((2*(4e-08-0.0)+(LP))<7e-08)?5.5e-08:4e-08))))>1.8e-07)?max(1.4e-07,(6e-08+(2*(((2*(4e-08-0.0)+(LP))<7e-08)?5.5e-08:4e-08)))):1.8e-07)-7e-08):(7e-08+max(1.4e-07,(6e-08+(2*(((2*(4e-08-0.0)+(LP))<7e-08)?5.5e-08:4e-08))))-7e-08))))+((WP)/(1))))*((1)-2)/2.0) \
        sa=((((WP)/(1))<7.95e-08)?(((6e-08+3e-08+(((2*(4e-08-0.0)+(LP))<7e-08)?5.5e-08:4e-08))>1.5e-07)?(6e-08+3e-08+(((2*(4e-08-0.0)+(LP))<7e-08)?5.5e-08:4e-08)):1.5e-07):(6e-08+3e-08+(((2*(4e-08-0.0)+(LP))<7e-08)?5.5e-08:4e-08))) \
        sb=((((WP)/(1))<7.95e-08)?(((6e-08+3e-08+(((2*(4e-08-0.0)+(LP))<7e-08)?5.5e-08:4e-08))>1.5e-07)?(6e-08+3e-08+(((2*(4e-08-0.0)+(LP))<7e-08)?5.5e-08:4e-08)):1.5e-07):(6e-08+3e-08+(((2*(4e-08-0.0)+(LP))<7e-08)?5.5e-08:4e-08))) \
        sd=(((1)==1)?0:((((WP)/(1))<7.95e-08)?(7e-08+((max(1.4e-07,(6e-08+(2*(((2*(4e-08-0.0)+(LP))<7e-08)?5.5e-08:4e-08))))>1.8e-07)?max(1.4e-07,(6e-08+(2*(((2*(4e-08-0.0)+(LP))<7e-08)?5.5e-08:4e-08)))):1.8e-07)-7e-08):(7e-08+max(1.4e-07,(6e-08+(2*(((2*(4e-08-0.0)+(LP))<7e-08)?5.5e-08:4e-08))))-7e-08))) \
        sca=((2e-06*2e-06)/((WP)/(1)))*(1/(80n)-1/((80n)+((WP)/(1)))) \
        scb=(1/(((WP)/(1))*2e-06))*(2e-06/10*(80n)*exp(-10*(80n)/2e-06)+((2e-06*2e-06)/100)*exp(-10*(80n)/2e-06)-(2e-06/10)*((80n)+((WP)/(1)))*exp(-10*((80n)+((WP)/(1)))/2e-06)-(2e-06*2e-06)/100*exp(-10*((80n)+((WP)/(1)))/2e-06)) \
        scc=(1/(((WP)/(1))*2e-06))*(2e-06/20*(80n)*exp(-20*(80n)/2e-06)+((2e-06*2e-06)/400)*exp(-20*(80n)/2e-06)-(2e-06/20)*((80n)+((WP)/(1)))*exp(-20*((80n)+((WP)/(1)))/2e-06)-(2e-06*2e-06)/400*exp(-20*((80n)+((WP)/(1)))/2e-06)) \
        mis_flag=1 rdscon_flag=1 cctg_flag=1
ends INVM1
// End of subcircuit definition.

// Library name: subvt
// Cell name: DUT
// View name: schematic
I8 (0 net02 OUT net3) INVM1
V0 (net3 0) vsource dc=vdd type=dc
V1 (net02 0) vsource type=pulse val0=0 val1=vdd period=5u delay=0 rise=1p \
        fall=1p
C0 (OUT 0) capacitor c=20f
simulatorOptions options psfversion="1.4.0" reltol=1e-3 vabstol=1e-6 \
    iabstol=1e-12 temp=27 tnom=27 scalem=1.0 scale=1.0 gmin=1e-12 rforce=1 \
    maxnotes=5 maxwarns=5 digits=5 cols=80 pivrel=1e-3 \
    sensfile="../psf/sens.output" checklimitdest=psf 
tran tran stop=10u errpreset=moderate write="spectre.ic" \
    writefinal="spectre.fc" annotate=status maxiters=5 
finalTimeOP info what=oppoint where=rawfile
dcOp dc write="spectre.dc" maxiters=150 maxsteps=10000 annotate=status
dcOpInfo info what=oppoint where=rawfile
dc dc dev=V1 param=dc start=0 stop=vdd oppoint=rawfile maxiters=150 \
    maxsteps=10000 annotate=status
modelParameter info what=models where=rawfile
element info what=inst where=rawfile
outputParameter info what=output where=rawfile
designParamVals info what=parameters where=rawfile
primitives info what=primitives where=rawfile
subckts info what=subckts where=rawfile
saveOptions options save=all pwr=all currents=all
