**
.LIB '/home/VLSI_ANALOG/Backup/UMC180/Designkits/Cadence_6.1/Models/Spectre/MM180_SPECTRE_MAIN_V161.lib.scs' tt
simulator lang=spectre
