// Generated for: spectre
// Generated on: Nov 30 11:09:38 2021
// Design library name: analogLib
// Design cell name: char1_tb
// Design view name: schematic
simulator lang=spectre
global 0
parameters WN=8u WP=8u
include "/home/VLSI_ANALOG/UMCLib/pdk/UMC/28/_G-01-LOGIC_MIXED_MODE28N-HPC/Designkits/Cadence_IC6/G-9FD-LOGIC_MIXED_MODE28N-HPC_UM028FDKHCC0000OA-FDK-Ver.A14_PB/UM028FDKHCC0000OA_A14_DESIGNKIT/UM028FDKHCC0000OA_A14_PB/umc28hpc/../Models/Spectre/l28hpc_mm_v1201.lib.scs" section=tt
include "/home/VLSI_ANALOG/UMCLib/pdk/UMC/28/_G-01-LOGIC_MIXED_MODE28N-HPC/Designkits/Cadence_IC6/G-9FD-LOGIC_MIXED_MODE28N-HPC_UM028FDKHCC0000OA-FDK-Ver.A14_PB/UM028FDKHCC0000OA_A14_DESIGNKIT/UM028FDKHCC0000OA_A14_PB/umc28hpc/../Models/Spectre/l28hpc_rf_v017.lib.scs" section=tt

// Library name: lowpower28
// Cell name: NAND2X1
// View name: schematic
subckt NAND2X1 A B GND VDD Y
    mn0 (net22 B GND GND) n_p9_hpculvt m=1 mf=1 w=WN l=60n nf=3 \
        ad=((int(((3)-1)/2)==int((3)/2))?((((WN)/(3))<4.95e-08)?((WN)/(3))*3e-08+(((((60n)>9e-08)?9.5e-08:(((60n)<40n)?7.5e-08:75n)))-3e-08)*5e-08:((((60n)>9e-08)?9.5e-08:(((60n)<40n)?7.5e-08:75n)))*((WN)/(3)))+((((WN)/(3))<4.95e-08)?((((((3)==1)?0:(((60n)>9e-08)?1.2e-07:(((60n)<40n)?1e-07:100n))))-2*3e-08)*5e-08)+2*((WN)/(3))*3e-08:((((3)==1)?0:(((60n)>9e-08)?1.2e-07:(((60n)<40n)?1e-07:100n))))*((WN)/(3)))*((3)-1)/2.0:((((WN)/(3))<4.95e-08)?((((((3)==1)?0:(((60n)>9e-08)?1.2e-07:(((60n)<40n)?1e-07:100n))))-2*3e-08)*5e-08)+2*((WN)/(3))*3e-08:((((3)==1)?0:(((60n)>9e-08)?1.2e-07:(((60n)<40n)?1e-07:100n))))*((WN)/(3)))*(3)/2.0) \
        as=((int(((3)-1)/2)==int((3)/2))?((((WN)/(3))<4.95e-08)?((WN)/(3))*3e-08+(((((60n)>9e-08)?9.5e-08:(((60n)<40n)?7.5e-08:75n)))-3e-08)*5e-08:((((60n)>9e-08)?9.5e-08:(((60n)<40n)?7.5e-08:75n)))*((WN)/(3)))+((((WN)/(3))<4.95e-08)?((((((3)==1)?0:(((60n)>9e-08)?1.2e-07:(((60n)<40n)?1e-07:100n))))-2*3e-08)*5e-08)+2*((WN)/(3))*3e-08:((((3)==1)?0:(((60n)>9e-08)?1.2e-07:(((60n)<40n)?1e-07:100n))))*((WN)/(3)))*((3)-1)/2.0:((((WN)/(3))<4.95e-08)?((WN)/(3))*3e-08+(((((60n)>9e-08)?9.5e-08:(((60n)<40n)?7.5e-08:75n)))-3e-08)*5e-08:((((60n)>9e-08)?9.5e-08:(((60n)<40n)?7.5e-08:75n)))*((WN)/(3)))+((((WN)/(3))<4.95e-08)?((WN)/(3))*3e-08+(((((60n)>9e-08)?9.5e-08:(((60n)<40n)?7.5e-08:75n)))-3e-08)*5e-08:((((60n)>9e-08)?9.5e-08:(((60n)<40n)?7.5e-08:75n)))*((WN)/(3)))+((((WN)/(3))<4.95e-08)?((((((3)==1)?0:(((60n)>9e-08)?1.2e-07:(((60n)<40n)?1e-07:100n))))-2*3e-08)*5e-08)+2*((WN)/(3))*3e-08:((((3)==1)?0:(((60n)>9e-08)?1.2e-07:(((60n)<40n)?1e-07:100n))))*((WN)/(3)))*((3)-2)/2.0) \
        pd=((int(((3)-1)/2)==int((3)/2))?((((WN)/(3))<4.95e-08)?2*((((60n)>9e-08)?9.5e-08:(((60n)<40n)?7.5e-08:75n)))+1e-07:2*(((((60n)>9e-08)?9.5e-08:(((60n)<40n)?7.5e-08:75n)))+((WN)/(3))))+((((WN)/(3))<4.95e-08)?2*((((3)==1)?0:(((60n)>9e-08)?1.2e-07:(((60n)<40n)?1e-07:100n))))+1e-07:2*(((((3)==1)?0:(((60n)>9e-08)?1.2e-07:(((60n)<40n)?1e-07:100n))))+((WN)/(3))))*((3)-1)/2.0:((((WN)/(3))<4.95e-08)?2*((((3)==1)?0:(((60n)>9e-08)?1.2e-07:(((60n)<40n)?1e-07:100n))))+1e-07:2*(((((3)==1)?0:(((60n)>9e-08)?1.2e-07:(((60n)<40n)?1e-07:100n))))+((WN)/(3))))*(3)/2.0) \
        ps=((int(((3)-1)/2)==int((3)/2))?((((WN)/(3))<4.95e-08)?2*((((60n)>9e-08)?9.5e-08:(((60n)<40n)?7.5e-08:75n)))+1e-07:2*(((((60n)>9e-08)?9.5e-08:(((60n)<40n)?7.5e-08:75n)))+((WN)/(3))))+((((WN)/(3))<4.95e-08)?2*((((3)==1)?0:(((60n)>9e-08)?1.2e-07:(((60n)<40n)?1e-07:100n))))+1e-07:2*(((((3)==1)?0:(((60n)>9e-08)?1.2e-07:(((60n)<40n)?1e-07:100n))))+((WN)/(3))))*((3)-1)/2.0:((((WN)/(3))<4.95e-08)?2*((((60n)>9e-08)?9.5e-08:(((60n)<40n)?7.5e-08:75n)))+1e-07:2*(((((60n)>9e-08)?9.5e-08:(((60n)<40n)?7.5e-08:75n)))+((WN)/(3))))+((((WN)/(3))<4.95e-08)?2*((((60n)>9e-08)?9.5e-08:(((60n)<40n)?7.5e-08:75n)))+1e-07:2*(((((60n)>9e-08)?9.5e-08:(((60n)<40n)?7.5e-08:75n)))+((WN)/(3))))+((((WN)/(3))<4.95e-08)?2*((((3)==1)?0:(((60n)>9e-08)?1.2e-07:(((60n)<40n)?1e-07:100n))))+1e-07:2*(((((3)==1)?0:(((60n)>9e-08)?1.2e-07:(((60n)<40n)?1e-07:100n))))+((WN)/(3))))*((3)-2)/2.0) \
        sa=(((60n)>9e-08)?9.5e-08:(((60n)<40n)?7.5e-08:75n)) \
        sb=(((60n)>9e-08)?9.5e-08:(((60n)<40n)?7.5e-08:75n)) \
        sd=(((3)==1)?0:(((60n)>9e-08)?1.2e-07:(((60n)<40n)?1e-07:100n))) \
        sca=((1e-06*1e-06)/((WN)/(3)))*(1/(65n)-1/((65n)+((WN)/(3)))) \
        scb=(1/(((WN)/(3))*1e-06))*(1e-06/10*(65n)*exp(-10*(65n)/1e-06)+((1e-06*1e-06)/100)*exp(-10*(65n)/1e-06)-(1e-06/10)*((65n)+((WN)/(3)))*exp(-10*((65n)+((WN)/(3)))/1e-06)-(1e-06*1e-06)/100*exp(-10*((65n)+((WN)/(3)))/1e-06)) \
        scc=(1/(((WN)/(3))*1e-06))*(1e-06/20*(65n)*exp(-20*(65n)/1e-06)+((1e-06*1e-06)/400)*exp(-20*(65n)/1e-06)-(1e-06/20)*((65n)+((WN)/(3)))*exp(-20*((65n)+((WN)/(3)))/1e-06)-(1e-06*1e-06)/400*exp(-20*((65n)+((WN)/(3)))/1e-06)) \
        mis_flag=1 nrd=965.517m nrs=965.517m cctg_flag=1 rdscon_flag=1 \
        rgate_flag=1
    mn1 (Y A net22 GND) n_p9_hpculvt m=1 mf=1 w=WN l=60n nf=3 \
        ad=((int(((3)-1)/2)==int((3)/2))?((((WN)/(3))<4.95e-08)?((WN)/(3))*3e-08+(((((60n)>9e-08)?9.5e-08:(((60n)<40n)?7.5e-08:75n)))-3e-08)*5e-08:((((60n)>9e-08)?9.5e-08:(((60n)<40n)?7.5e-08:75n)))*((WN)/(3)))+((((WN)/(3))<4.95e-08)?((((((3)==1)?0:(((60n)>9e-08)?1.2e-07:(((60n)<40n)?1e-07:100n))))-2*3e-08)*5e-08)+2*((WN)/(3))*3e-08:((((3)==1)?0:(((60n)>9e-08)?1.2e-07:(((60n)<40n)?1e-07:100n))))*((WN)/(3)))*((3)-1)/2.0:((((WN)/(3))<4.95e-08)?((((((3)==1)?0:(((60n)>9e-08)?1.2e-07:(((60n)<40n)?1e-07:100n))))-2*3e-08)*5e-08)+2*((WN)/(3))*3e-08:((((3)==1)?0:(((60n)>9e-08)?1.2e-07:(((60n)<40n)?1e-07:100n))))*((WN)/(3)))*(3)/2.0) \
        as=((int(((3)-1)/2)==int((3)/2))?((((WN)/(3))<4.95e-08)?((WN)/(3))*3e-08+(((((60n)>9e-08)?9.5e-08:(((60n)<40n)?7.5e-08:75n)))-3e-08)*5e-08:((((60n)>9e-08)?9.5e-08:(((60n)<40n)?7.5e-08:75n)))*((WN)/(3)))+((((WN)/(3))<4.95e-08)?((((((3)==1)?0:(((60n)>9e-08)?1.2e-07:(((60n)<40n)?1e-07:100n))))-2*3e-08)*5e-08)+2*((WN)/(3))*3e-08:((((3)==1)?0:(((60n)>9e-08)?1.2e-07:(((60n)<40n)?1e-07:100n))))*((WN)/(3)))*((3)-1)/2.0:((((WN)/(3))<4.95e-08)?((WN)/(3))*3e-08+(((((60n)>9e-08)?9.5e-08:(((60n)<40n)?7.5e-08:75n)))-3e-08)*5e-08:((((60n)>9e-08)?9.5e-08:(((60n)<40n)?7.5e-08:75n)))*((WN)/(3)))+((((WN)/(3))<4.95e-08)?((WN)/(3))*3e-08+(((((60n)>9e-08)?9.5e-08:(((60n)<40n)?7.5e-08:75n)))-3e-08)*5e-08:((((60n)>9e-08)?9.5e-08:(((60n)<40n)?7.5e-08:75n)))*((WN)/(3)))+((((WN)/(3))<4.95e-08)?((((((3)==1)?0:(((60n)>9e-08)?1.2e-07:(((60n)<40n)?1e-07:100n))))-2*3e-08)*5e-08)+2*((WN)/(3))*3e-08:((((3)==1)?0:(((60n)>9e-08)?1.2e-07:(((60n)<40n)?1e-07:100n))))*((WN)/(3)))*((3)-2)/2.0) \
        pd=((int(((3)-1)/2)==int((3)/2))?((((WN)/(3))<4.95e-08)?2*((((60n)>9e-08)?9.5e-08:(((60n)<40n)?7.5e-08:75n)))+1e-07:2*(((((60n)>9e-08)?9.5e-08:(((60n)<40n)?7.5e-08:75n)))+((WN)/(3))))+((((WN)/(3))<4.95e-08)?2*((((3)==1)?0:(((60n)>9e-08)?1.2e-07:(((60n)<40n)?1e-07:100n))))+1e-07:2*(((((3)==1)?0:(((60n)>9e-08)?1.2e-07:(((60n)<40n)?1e-07:100n))))+((WN)/(3))))*((3)-1)/2.0:((((WN)/(3))<4.95e-08)?2*((((3)==1)?0:(((60n)>9e-08)?1.2e-07:(((60n)<40n)?1e-07:100n))))+1e-07:2*(((((3)==1)?0:(((60n)>9e-08)?1.2e-07:(((60n)<40n)?1e-07:100n))))+((WN)/(3))))*(3)/2.0) \
        ps=((int(((3)-1)/2)==int((3)/2))?((((WN)/(3))<4.95e-08)?2*((((60n)>9e-08)?9.5e-08:(((60n)<40n)?7.5e-08:75n)))+1e-07:2*(((((60n)>9e-08)?9.5e-08:(((60n)<40n)?7.5e-08:75n)))+((WN)/(3))))+((((WN)/(3))<4.95e-08)?2*((((3)==1)?0:(((60n)>9e-08)?1.2e-07:(((60n)<40n)?1e-07:100n))))+1e-07:2*(((((3)==1)?0:(((60n)>9e-08)?1.2e-07:(((60n)<40n)?1e-07:100n))))+((WN)/(3))))*((3)-1)/2.0:((((WN)/(3))<4.95e-08)?2*((((60n)>9e-08)?9.5e-08:(((60n)<40n)?7.5e-08:75n)))+1e-07:2*(((((60n)>9e-08)?9.5e-08:(((60n)<40n)?7.5e-08:75n)))+((WN)/(3))))+((((WN)/(3))<4.95e-08)?2*((((60n)>9e-08)?9.5e-08:(((60n)<40n)?7.5e-08:75n)))+1e-07:2*(((((60n)>9e-08)?9.5e-08:(((60n)<40n)?7.5e-08:75n)))+((WN)/(3))))+((((WN)/(3))<4.95e-08)?2*((((3)==1)?0:(((60n)>9e-08)?1.2e-07:(((60n)<40n)?1e-07:100n))))+1e-07:2*(((((3)==1)?0:(((60n)>9e-08)?1.2e-07:(((60n)<40n)?1e-07:100n))))+((WN)/(3))))*((3)-2)/2.0) \
        sa=(((60n)>9e-08)?9.5e-08:(((60n)<40n)?7.5e-08:75n)) \
        sb=(((60n)>9e-08)?9.5e-08:(((60n)<40n)?7.5e-08:75n)) \
        sd=(((3)==1)?0:(((60n)>9e-08)?1.2e-07:(((60n)<40n)?1e-07:100n))) \
        sca=((1e-06*1e-06)/((WN)/(3)))*(1/(65n)-1/((65n)+((WN)/(3)))) \
        scb=(1/(((WN)/(3))*1e-06))*(1e-06/10*(65n)*exp(-10*(65n)/1e-06)+((1e-06*1e-06)/100)*exp(-10*(65n)/1e-06)-(1e-06/10)*((65n)+((WN)/(3)))*exp(-10*((65n)+((WN)/(3)))/1e-06)-(1e-06*1e-06)/100*exp(-10*((65n)+((WN)/(3)))/1e-06)) \
        scc=(1/(((WN)/(3))*1e-06))*(1e-06/20*(65n)*exp(-20*(65n)/1e-06)+((1e-06*1e-06)/400)*exp(-20*(65n)/1e-06)-(1e-06/20)*((65n)+((WN)/(3)))*exp(-20*((65n)+((WN)/(3)))/1e-06)-(1e-06*1e-06)/400*exp(-20*((65n)+((WN)/(3)))/1e-06)) \
        mis_flag=1 nrd=965.517m nrs=965.517m cctg_flag=1 rdscon_flag=1 \
        rgate_flag=1
    mp0 (Y A VDD VDD) p_p9_hpculvt m=1 mf=1 w=WP l=30n nf=3 \
        ad=((int(((3)-1)/2)==int((3)/2))?((((WP)/(3))<4.95e-08)?((WP)/(3))*3e-08+(((((30n)>9e-08)?9.5e-08:(((30n)<40n)?7.5e-08:75n)))-3e-08)*5e-08:((((30n)>9e-08)?9.5e-08:(((30n)<40n)?7.5e-08:75n)))*((WP)/(3)))+((((WP)/(3))<4.95e-08)?((((((3)==1)?0:(((30n)>9e-08)?1.2e-07:(((30n)<40n)?1e-07:100n))))-2*3e-08)*5e-08)+2*((WP)/(3))*3e-08:((((3)==1)?0:(((30n)>9e-08)?1.2e-07:(((30n)<40n)?1e-07:100n))))*((WP)/(3)))*((3)-1)/2.0:((((WP)/(3))<4.95e-08)?((((((3)==1)?0:(((30n)>9e-08)?1.2e-07:(((30n)<40n)?1e-07:100n))))-2*3e-08)*5e-08)+2*((WP)/(3))*3e-08:((((3)==1)?0:(((30n)>9e-08)?1.2e-07:(((30n)<40n)?1e-07:100n))))*((WP)/(3)))*(3)/2.0) \
        as=((int(((3)-1)/2)==int((3)/2))?((((WP)/(3))<4.95e-08)?((WP)/(3))*3e-08+(((((30n)>9e-08)?9.5e-08:(((30n)<40n)?7.5e-08:75n)))-3e-08)*5e-08:((((30n)>9e-08)?9.5e-08:(((30n)<40n)?7.5e-08:75n)))*((WP)/(3)))+((((WP)/(3))<4.95e-08)?((((((3)==1)?0:(((30n)>9e-08)?1.2e-07:(((30n)<40n)?1e-07:100n))))-2*3e-08)*5e-08)+2*((WP)/(3))*3e-08:((((3)==1)?0:(((30n)>9e-08)?1.2e-07:(((30n)<40n)?1e-07:100n))))*((WP)/(3)))*((3)-1)/2.0:((((WP)/(3))<4.95e-08)?((WP)/(3))*3e-08+(((((30n)>9e-08)?9.5e-08:(((30n)<40n)?7.5e-08:75n)))-3e-08)*5e-08:((((30n)>9e-08)?9.5e-08:(((30n)<40n)?7.5e-08:75n)))*((WP)/(3)))+((((WP)/(3))<4.95e-08)?((WP)/(3))*3e-08+(((((30n)>9e-08)?9.5e-08:(((30n)<40n)?7.5e-08:75n)))-3e-08)*5e-08:((((30n)>9e-08)?9.5e-08:(((30n)<40n)?7.5e-08:75n)))*((WP)/(3)))+((((WP)/(3))<4.95e-08)?((((((3)==1)?0:(((30n)>9e-08)?1.2e-07:(((30n)<40n)?1e-07:100n))))-2*3e-08)*5e-08)+2*((WP)/(3))*3e-08:((((3)==1)?0:(((30n)>9e-08)?1.2e-07:(((30n)<40n)?1e-07:100n))))*((WP)/(3)))*((3)-2)/2.0) \
        pd=((int(((3)-1)/2)==int((3)/2))?((((WP)/(3))<4.95e-08)?2*((((30n)>9e-08)?9.5e-08:(((30n)<40n)?7.5e-08:75n)))+1e-07:2*(((((30n)>9e-08)?9.5e-08:(((30n)<40n)?7.5e-08:75n)))+((WP)/(3))))+((((WP)/(3))<4.95e-08)?2*((((3)==1)?0:(((30n)>9e-08)?1.2e-07:(((30n)<40n)?1e-07:100n))))+1e-07:2*(((((3)==1)?0:(((30n)>9e-08)?1.2e-07:(((30n)<40n)?1e-07:100n))))+((WP)/(3))))*((3)-1)/2.0:((((WP)/(3))<4.95e-08)?2*((((3)==1)?0:(((30n)>9e-08)?1.2e-07:(((30n)<40n)?1e-07:100n))))+1e-07:2*(((((3)==1)?0:(((30n)>9e-08)?1.2e-07:(((30n)<40n)?1e-07:100n))))+((WP)/(3))))*(3)/2.0) \
        ps=((int(((3)-1)/2)==int((3)/2))?((((WP)/(3))<4.95e-08)?2*((((30n)>9e-08)?9.5e-08:(((30n)<40n)?7.5e-08:75n)))+1e-07:2*(((((30n)>9e-08)?9.5e-08:(((30n)<40n)?7.5e-08:75n)))+((WP)/(3))))+((((WP)/(3))<4.95e-08)?2*((((3)==1)?0:(((30n)>9e-08)?1.2e-07:(((30n)<40n)?1e-07:100n))))+1e-07:2*(((((3)==1)?0:(((30n)>9e-08)?1.2e-07:(((30n)<40n)?1e-07:100n))))+((WP)/(3))))*((3)-1)/2.0:((((WP)/(3))<4.95e-08)?2*((((30n)>9e-08)?9.5e-08:(((30n)<40n)?7.5e-08:75n)))+1e-07:2*(((((30n)>9e-08)?9.5e-08:(((30n)<40n)?7.5e-08:75n)))+((WP)/(3))))+((((WP)/(3))<4.95e-08)?2*((((30n)>9e-08)?9.5e-08:(((30n)<40n)?7.5e-08:75n)))+1e-07:2*(((((30n)>9e-08)?9.5e-08:(((30n)<40n)?7.5e-08:75n)))+((WP)/(3))))+((((WP)/(3))<4.95e-08)?2*((((3)==1)?0:(((30n)>9e-08)?1.2e-07:(((30n)<40n)?1e-07:100n))))+1e-07:2*(((((3)==1)?0:(((30n)>9e-08)?1.2e-07:(((30n)<40n)?1e-07:100n))))+((WP)/(3))))*((3)-2)/2.0) \
        sa=(((30n)>9e-08)?9.5e-08:(((30n)<40n)?7.5e-08:75n)) \
        sb=(((30n)>9e-08)?9.5e-08:(((30n)<40n)?7.5e-08:75n)) \
        sd=(((3)==1)?0:(((30n)>9e-08)?1.2e-07:(((30n)<40n)?1e-07:100n))) \
        sca=((1e-06*1e-06)/((WP)/(3)))*(1/(65n)-1/((65n)+((WP)/(3)))) \
        scb=(1/(((WP)/(3))*1e-06))*(1e-06/10*(65n)*exp(-10*(65n)/1e-06)+((1e-06*1e-06)/100)*exp(-10*(65n)/1e-06)-(1e-06/10)*((65n)+((WP)/(3)))*exp(-10*((65n)+((WP)/(3)))/1e-06)-(1e-06*1e-06)/100*exp(-10*((65n)+((WP)/(3)))/1e-06)) \
        scc=(1/(((WP)/(3))*1e-06))*(1e-06/20*(65n)*exp(-20*(65n)/1e-06)+((1e-06*1e-06)/400)*exp(-20*(65n)/1e-06)-(1e-06/20)*((65n)+((WP)/(3)))*exp(-20*((65n)+((WP)/(3)))/1e-06)-(1e-06*1e-06)/400*exp(-20*((65n)+((WP)/(3)))/1e-06)) \
        mis_flag=1 nrd=651.163m nrs=651.163m cctg_flag=1 rdscon_flag=1 \
        rgate_flag=1
    mp1 (Y B VDD VDD) p_p9_hpculvt m=1 mf=1 w=WP l=30n nf=3 \
        ad=((int(((3)-1)/2)==int((3)/2))?((((WP)/(3))<4.95e-08)?((WP)/(3))*3e-08+(((((30n)>9e-08)?9.5e-08:(((30n)<40n)?7.5e-08:75n)))-3e-08)*5e-08:((((30n)>9e-08)?9.5e-08:(((30n)<40n)?7.5e-08:75n)))*((WP)/(3)))+((((WP)/(3))<4.95e-08)?((((((3)==1)?0:(((30n)>9e-08)?1.2e-07:(((30n)<40n)?1e-07:100n))))-2*3e-08)*5e-08)+2*((WP)/(3))*3e-08:((((3)==1)?0:(((30n)>9e-08)?1.2e-07:(((30n)<40n)?1e-07:100n))))*((WP)/(3)))*((3)-1)/2.0:((((WP)/(3))<4.95e-08)?((((((3)==1)?0:(((30n)>9e-08)?1.2e-07:(((30n)<40n)?1e-07:100n))))-2*3e-08)*5e-08)+2*((WP)/(3))*3e-08:((((3)==1)?0:(((30n)>9e-08)?1.2e-07:(((30n)<40n)?1e-07:100n))))*((WP)/(3)))*(3)/2.0) \
        as=((int(((3)-1)/2)==int((3)/2))?((((WP)/(3))<4.95e-08)?((WP)/(3))*3e-08+(((((30n)>9e-08)?9.5e-08:(((30n)<40n)?7.5e-08:75n)))-3e-08)*5e-08:((((30n)>9e-08)?9.5e-08:(((30n)<40n)?7.5e-08:75n)))*((WP)/(3)))+((((WP)/(3))<4.95e-08)?((((((3)==1)?0:(((30n)>9e-08)?1.2e-07:(((30n)<40n)?1e-07:100n))))-2*3e-08)*5e-08)+2*((WP)/(3))*3e-08:((((3)==1)?0:(((30n)>9e-08)?1.2e-07:(((30n)<40n)?1e-07:100n))))*((WP)/(3)))*((3)-1)/2.0:((((WP)/(3))<4.95e-08)?((WP)/(3))*3e-08+(((((30n)>9e-08)?9.5e-08:(((30n)<40n)?7.5e-08:75n)))-3e-08)*5e-08:((((30n)>9e-08)?9.5e-08:(((30n)<40n)?7.5e-08:75n)))*((WP)/(3)))+((((WP)/(3))<4.95e-08)?((WP)/(3))*3e-08+(((((30n)>9e-08)?9.5e-08:(((30n)<40n)?7.5e-08:75n)))-3e-08)*5e-08:((((30n)>9e-08)?9.5e-08:(((30n)<40n)?7.5e-08:75n)))*((WP)/(3)))+((((WP)/(3))<4.95e-08)?((((((3)==1)?0:(((30n)>9e-08)?1.2e-07:(((30n)<40n)?1e-07:100n))))-2*3e-08)*5e-08)+2*((WP)/(3))*3e-08:((((3)==1)?0:(((30n)>9e-08)?1.2e-07:(((30n)<40n)?1e-07:100n))))*((WP)/(3)))*((3)-2)/2.0) \
        pd=((int(((3)-1)/2)==int((3)/2))?((((WP)/(3))<4.95e-08)?2*((((30n)>9e-08)?9.5e-08:(((30n)<40n)?7.5e-08:75n)))+1e-07:2*(((((30n)>9e-08)?9.5e-08:(((30n)<40n)?7.5e-08:75n)))+((WP)/(3))))+((((WP)/(3))<4.95e-08)?2*((((3)==1)?0:(((30n)>9e-08)?1.2e-07:(((30n)<40n)?1e-07:100n))))+1e-07:2*(((((3)==1)?0:(((30n)>9e-08)?1.2e-07:(((30n)<40n)?1e-07:100n))))+((WP)/(3))))*((3)-1)/2.0:((((WP)/(3))<4.95e-08)?2*((((3)==1)?0:(((30n)>9e-08)?1.2e-07:(((30n)<40n)?1e-07:100n))))+1e-07:2*(((((3)==1)?0:(((30n)>9e-08)?1.2e-07:(((30n)<40n)?1e-07:100n))))+((WP)/(3))))*(3)/2.0) \
        ps=((int(((3)-1)/2)==int((3)/2))?((((WP)/(3))<4.95e-08)?2*((((30n)>9e-08)?9.5e-08:(((30n)<40n)?7.5e-08:75n)))+1e-07:2*(((((30n)>9e-08)?9.5e-08:(((30n)<40n)?7.5e-08:75n)))+((WP)/(3))))+((((WP)/(3))<4.95e-08)?2*((((3)==1)?0:(((30n)>9e-08)?1.2e-07:(((30n)<40n)?1e-07:100n))))+1e-07:2*(((((3)==1)?0:(((30n)>9e-08)?1.2e-07:(((30n)<40n)?1e-07:100n))))+((WP)/(3))))*((3)-1)/2.0:((((WP)/(3))<4.95e-08)?2*((((30n)>9e-08)?9.5e-08:(((30n)<40n)?7.5e-08:75n)))+1e-07:2*(((((30n)>9e-08)?9.5e-08:(((30n)<40n)?7.5e-08:75n)))+((WP)/(3))))+((((WP)/(3))<4.95e-08)?2*((((30n)>9e-08)?9.5e-08:(((30n)<40n)?7.5e-08:75n)))+1e-07:2*(((((30n)>9e-08)?9.5e-08:(((30n)<40n)?7.5e-08:75n)))+((WP)/(3))))+((((WP)/(3))<4.95e-08)?2*((((3)==1)?0:(((30n)>9e-08)?1.2e-07:(((30n)<40n)?1e-07:100n))))+1e-07:2*(((((3)==1)?0:(((30n)>9e-08)?1.2e-07:(((30n)<40n)?1e-07:100n))))+((WP)/(3))))*((3)-2)/2.0) \
        sa=(((30n)>9e-08)?9.5e-08:(((30n)<40n)?7.5e-08:75n)) \
        sb=(((30n)>9e-08)?9.5e-08:(((30n)<40n)?7.5e-08:75n)) \
        sd=(((3)==1)?0:(((30n)>9e-08)?1.2e-07:(((30n)<40n)?1e-07:100n))) \
        sca=((1e-06*1e-06)/((WP)/(3)))*(1/(65n)-1/((65n)+((WP)/(3)))) \
        scb=(1/(((WP)/(3))*1e-06))*(1e-06/10*(65n)*exp(-10*(65n)/1e-06)+((1e-06*1e-06)/100)*exp(-10*(65n)/1e-06)-(1e-06/10)*((65n)+((WP)/(3)))*exp(-10*((65n)+((WP)/(3)))/1e-06)-(1e-06*1e-06)/100*exp(-10*((65n)+((WP)/(3)))/1e-06)) \
        scc=(1/(((WP)/(3))*1e-06))*(1e-06/20*(65n)*exp(-20*(65n)/1e-06)+((1e-06*1e-06)/400)*exp(-20*(65n)/1e-06)-(1e-06/20)*((65n)+((WP)/(3)))*exp(-20*((65n)+((WP)/(3)))/1e-06)-(1e-06*1e-06)/400*exp(-20*((65n)+((WP)/(3)))/1e-06)) \
        mis_flag=1 nrd=651.163m nrs=651.163m cctg_flag=1 rdscon_flag=1 \
        rgate_flag=1
ends NAND2X1
// End of subcircuit definition.

// Library name: analogLib
// Cell name: char1_tb
// View name: schematic
C0 (OUT 0) capacitor c=20f
V2 (IN2 0) vsource dc=0 type=pulse val0=0 val1=300m period=5u delay=0 \
        rise=100p fall=100p
V0 (IN1 0) vsource dc=0 type=pulse val0=0 val1=300m period=10u delay=0 \
        rise=100p fall=100p
V1 (net5 0) vsource dc=300m type=dc
I0 (IN1 IN2 0 net5 OUT) NAND2X1
simulatorOptions options psfversion="1.4.0" reltol=1e-3 vabstol=1e-6 \
    iabstol=1e-12 temp=27 tnom=27 scalem=1.0 scale=1.0 gmin=1e-12 rforce=1 \
    maxnotes=5 maxwarns=5 digits=5 cols=80 pivrel=1e-3 \
    sensfile="../psf/sens.output" checklimitdest=psf 
tran tran stop=20u write="spectre.ic" writefinal="spectre.fc" \
    annotate=status maxiters=5 
finalTimeOP info what=oppoint where=rawfile
modelParameter info what=models where=rawfile
element info what=inst where=rawfile
outputParameter info what=output where=rawfile
designParamVals info what=parameters where=rawfile
primitives info what=primitives where=rawfile
subckts info what=subckts where=rawfile
saveOptions options save=all pwr=all

